@<TRIPOS>MOLECULE
MOL
  189   185     1     0     0
SMALL
resp


@<TRIPOS>ATOM
      1 C1         -1.4050   -0.4170    6.8740 c3        1 MOL     -0.293591
      2 C2         -1.4480    0.0420    5.4900 c         1 MOL      0.825239
      3 O1         -0.5160    0.7070    5.0620 o         1 MOL     -0.639596
      4 H1         -2.3850   -0.2790    7.3310 hc        1 MOL      0.066834
      5 H2         -1.1380   -1.4740    6.8990 hc        1 MOL      0.066834
      6 H3         -0.6620    0.1580    7.4260 hc        1 MOL      0.066834
      7 N1         -2.4970   -0.2170    4.7290 n         1 MOL     -0.656800
      8 C3         -2.6200    0.1770    3.3370 c3        1 MOL      0.060237
      9 C4         -2.6760    1.7430    3.1730 c         1 MOL      0.673987
     10 O2         -3.4660    2.4000    3.8410 o         1 MOL     -0.585529
     11 C5         -3.7390   -0.5490    2.5660 c3        1 MOL     -0.122270
     12 C6         -4.1230   -0.0280    1.2340 c         1 MOL      0.604723
     13 O3         -3.1650    0.3620    0.4930 o         1 MOL     -0.627754
     14 O4         -5.3350    0.0320    0.9290 o         1 MOL     -0.627754
     15 H4         -3.2540   -0.7380    5.1460 hn        1 MOL      0.329669
     16 H5         -1.7230   -0.1740    2.8280 h1        1 MOL      0.028618
     17 H6         -4.6910   -0.5170    3.0930 hc        1 MOL      0.022737
     18 H7         -3.4330   -1.5860    2.4750 hc        1 MOL      0.022737
     19 N2         -1.7420    2.3690    2.4280 n         1 MOL     -0.325063
     20 C7         -1.6570    3.8180    2.2900 c3        1 MOL     -0.035050
     21 C8         -2.6040    4.4580    1.3680 c         1 MOL      0.438015
     22 O5         -3.0170    5.5810    1.6240 o         1 MOL     -0.602068
     23 C9         -0.2080    4.1620    1.7620 c3        1 MOL     -0.065956
     24 C10         0.1580    5.6530    1.9140 c3        1 MOL      0.086848
     25 C11         1.3010    6.0500    0.9830 c3        1 MOL      0.066322
     26 C12         1.5270    7.5560    0.8950 c3        1 MOL     -0.111460
     27 N3          0.2900    8.2520    0.3280 n4        1 MOL     -0.346645
     28 H8         -1.0430    1.8690    1.9010 hn        1 MOL      0.176708
     29 H9         -1.7890    4.2280    3.2890 h1        1 MOL      0.077655
     30 H10        -0.1040    3.8450    0.7240 hc        1 MOL      0.069562
     31 H11         0.4930    3.5310    2.3130 hc        1 MOL      0.069562
     32 H12         0.3230    5.7950    2.9790 hc        1 MOL     -0.015686
     33 H13        -0.7040    6.2560    1.6230 hc        1 MOL     -0.015686
     34 H14         1.0170    5.6270    0.0200 hc        1 MOL      0.009149
     35 H15         2.2260    5.5780    1.3290 hc        1 MOL      0.009149
     36 H16         2.3120    7.6860    0.1430 hx        1 MOL      0.105064
     37 H17         1.8110    7.9160    1.8890 hx        1 MOL      0.105064
     38 H18         0.4040    9.2540    0.2780 hn        1 MOL      0.330912
     39 H19         0.0910    7.9440   -0.6140 hn        1 MOL      0.330912
     40 H20        -0.5030    7.9850    0.8850 hn        1 MOL      0.330912
     41 N4         -2.9230    3.6630    0.3870 n         1 MOL      0.056771
     42 C13        -3.8040    4.0380   -0.7710 c3        1 MOL     -0.088371
     43 C14        -5.2740    3.7350   -0.6200 c         1 MOL      0.333465
     44 O6         -6.0230    4.2730   -1.4650 o         1 MOL     -0.487510
     45 C15        -3.3210    3.3970   -2.0540 c3        1 MOL     -0.131592
     46 C16        -1.8250    3.4100   -2.1900 c         1 MOL      0.629696
     47 O7         -1.3290    4.4830   -2.5820 o         1 MOL     -0.682031
     48 O8         -1.1510    2.4870   -1.6740 o         1 MOL     -0.682031
     49 H21        -2.6830    2.6900    0.4120 hn        1 MOL      0.011370
     50 H22        -3.5830    5.1050   -0.8890 h1        1 MOL      0.066242
     51 H23        -3.8160    3.9600   -2.8410 hc        1 MOL      0.039327
     52 H24        -3.7200    2.3830   -2.0290 hc        1 MOL      0.039327
     53 N5         -5.7210    2.9510    0.3550 n         1 MOL     -0.142362
     54 C17        -7.0560    2.3850    0.2740 c3        1 MOL     -0.300599
     55 C18        -7.3700    1.4930   -0.9720 c         1 MOL      0.475095
     56 O9         -8.4610    1.5050   -1.5420 o         1 MOL     -0.557966
     57 H25        -5.0340    2.7830    1.0890 hn        1 MOL      0.175458
     58 H26        -7.6440    3.2980    0.2740 h1        1 MOL      0.137335
     59 H27        -7.2280    1.7700    1.1570 h1        1 MOL      0.137335
     60 N6         -6.3380    0.8190   -1.4500 n         1 MOL     -0.218211
     61 C19        -6.4310   -0.1620   -2.5360 c3        1 MOL     -0.077217
     62 C20        -6.6570   -1.6250   -2.0450 c         1 MOL      0.331814
     63 O10        -6.8420   -2.5740   -2.8550 o         1 MOL     -0.527429
     64 C21        -5.2440   -0.1610   -3.6050 c3        1 MOL     -0.272810
     65 C22        -3.8860   -0.4170   -2.9260 c         1 MOL      0.856356
     66 O11        -2.9380    0.2970   -3.2410 o         1 MOL     -0.777271
     67 O12        -3.6800   -1.3510   -2.1280 o         1 MOL     -0.777271
     68 H28        -5.5000    0.8930   -0.8820 hn        1 MOL      0.396176
     69 H29        -7.3090    0.1250   -3.1230 h1        1 MOL      0.145125
     70 H30        -5.2650    0.8470   -4.0310 hc        1 MOL      0.080644
     71 H31        -5.2800   -0.8780   -4.4240 hc        1 MOL      0.080644
     72 N7         -6.7530   -1.8640   -0.7590 n         1 MOL     -0.106098
     73 C23        -6.8140   -3.1800   -0.1550 c3        1 MOL     -0.233806
     74 C24        -5.5610   -4.1720   -0.2750 c         1 MOL      0.560577
     75 O13        -5.7070   -5.3330    0.0150 o         1 MOL     -0.555523
     76 H32        -6.5900   -1.0620   -0.1600 hn        1 MOL      0.176351
     77 H33        -7.6680   -3.7400   -0.5140 h1        1 MOL      0.104615
     78 H34        -6.8330   -2.9950    0.9210 h1        1 MOL      0.104615
     79 N8         -4.3620   -3.7060   -0.6660 n         1 MOL     -0.217847
     80 C25        -3.1010   -4.5240   -0.5800 c3        1 MOL     -0.277947
     81 C26        -1.8660   -3.7390   -0.1590 c         1 MOL      0.901524
     82 O14        -1.8450   -2.5480   -0.2170 o         1 MOL     -0.731009
     83 C27        -2.9220   -5.1010   -1.9880 c3        1 MOL      0.359527
     84 C28        -4.1220   -5.8130   -2.5540 c3        1 MOL     -0.448509
     85 O15        -2.6240   -4.0490   -2.9370 oh        1 MOL     -0.618291
     86 H35        -4.2750   -2.7310   -0.9380 hn        1 MOL      0.217650
     87 H36        -3.1600   -5.3180    0.1700 h1        1 MOL      0.112676
     88 H37        -2.0340   -5.7380   -1.9860 h1        1 MOL      0.013824
     89 H38        -3.1660   -3.2830   -2.7320 ho        1 MOL      0.403417
     90 H39        -4.8990   -5.1130   -2.8660 hc        1 MOL      0.128286
     91 H40        -3.9250   -6.2750   -3.5200 hc        1 MOL      0.128286
     92 H41        -4.4590   -6.6010   -1.8800 hc        1 MOL      0.128286
     93 N9         -0.8780   -4.3500    0.3970 n         1 MOL     -0.668527
     94 C29         0.3660   -3.7840    0.9020 c3        1 MOL      0.095406
     95 C30         1.5720   -4.1150    0.0350 c         1 MOL      0.511057
     96 O16         1.7700   -5.2660   -0.3490 o         1 MOL     -0.584116
     97 C31         0.5010   -4.1160    2.3630 c3        1 MOL      0.075131
     98 C32        -0.5570   -3.4220    3.2550 c3        1 MOL     -0.005991
     99 C33         1.8360   -3.7400    2.9490 c3        1 MOL     -0.382716
    100 C34        -0.7610   -4.1560    4.5490 c3        1 MOL     -0.235132
    101 H42        -0.8650   -5.3600    0.3430 hn        1 MOL      0.303375
    102 H43         0.3570   -2.7010    0.8320 h1        1 MOL      0.029059
    103 H44         0.4370   -5.2010    2.4400 hc        1 MOL      0.040844
    104 H45        -1.5330   -3.4160    2.7780 hc        1 MOL      0.077293
    105 H46        -0.2210   -2.3980    3.4210 hc        1 MOL      0.077293
    106 H47         2.5940   -4.2740    2.3780 hc        1 MOL      0.093553
    107 H48         2.0610   -2.6860    2.8750 hc        1 MOL      0.093553
    108 H49         1.9990   -3.9520    4.0090 hc        1 MOL      0.093553
    109 H50         0.1220   -4.1610    5.1840 hc        1 MOL      0.054946
    110 H51        -1.6190   -3.8720    5.1550 hc        1 MOL      0.054946
    111 H52        -0.8760   -5.2090    4.2810 hc        1 MOL      0.054946
    112 N10         2.3490   -3.1640   -0.3780 n         1 MOL      0.004715
    113 C35         3.5180   -3.2410   -1.3070 c3        1 MOL     -0.215608
    114 C36         4.8260   -3.0510   -0.5210 c         1 MOL      0.510581
    115 O17         4.7560   -3.0470    0.7150 o         1 MOL     -0.437880
    116 C37         3.4830   -2.1840   -2.4460 c3        1 MOL      0.310449
    117 C38         2.2280   -2.3860   -3.1930 c3        1 MOL     -0.354526
    118 O18         3.4270   -0.8680   -1.9780 oh        1 MOL     -0.603132
    119 H53         2.1330   -2.2830    0.0800 hn        1 MOL      0.077395
    120 H54         3.4670   -4.2510   -1.7220 h1        1 MOL      0.111168
    121 H55         4.3540   -2.2980   -3.0870 h1        1 MOL      0.029816
    122 H56         2.5190   -0.7710   -1.6780 ho        1 MOL      0.342259
    123 H57         2.1910   -3.4140   -3.5500 hc        1 MOL      0.082745
    124 H58         1.3980   -2.1680   -2.5250 hc        1 MOL      0.082745
    125 H59         2.2010   -1.7990   -4.1140 hc        1 MOL      0.082745
    126 N11         5.9970   -2.8790   -1.2440 n         1 MOL     -0.469830
    127 C39         7.3130   -2.4010   -0.7360 c3        1 MOL      0.006024
    128 C40         7.1180   -0.9790   -0.0820 c         1 MOL      0.385749
    129 O19         7.5370   -0.9060    1.0910 o         1 MOL     -0.530859
    130 C41         8.3310   -2.1900   -1.9350 c3        1 MOL      0.291959
    131 C42         9.0560   -3.5320   -2.0760 c3        1 MOL     -0.338122
    132 O20         7.7450   -1.8320   -3.1500 oh        1 MOL     -0.621058
    133 H60         5.9700   -2.9630   -2.2500 hn        1 MOL      0.285355
    134 H61         7.6560   -3.1160    0.0070 h1        1 MOL      0.142989
    135 H62         8.9710   -1.3540   -1.6470 h1        1 MOL      0.005327
    136 H63         8.4670   -1.6290   -3.7430 ho        1 MOL      0.413245
    137 H64         9.4940   -3.7310   -1.1010 hc        1 MOL      0.096254
    138 H65         8.3090   -4.2680   -2.3900 hc        1 MOL      0.096254
    139 H66         9.8550   -3.4600   -2.8130 hc        1 MOL      0.096254
    140 N12         6.6350    0.0890   -0.7210 n         1 MOL     -0.116781
    141 C43         6.5870    1.4940   -0.2170 c3        1 MOL     -0.225701
    142 C44         5.7080    1.7390    0.9850 c         1 MOL      0.542074
    143 O21         5.4480    2.8470    1.4420 o         1 MOL     -0.566874
    144 C45         6.1940    2.4520   -1.4070 c3        1 MOL      0.034363
    145 C46         7.4490    3.0700   -2.0940 c3        1 MOL     -0.089654
    146 C47         7.0710    3.5330   -3.5200 c3        1 MOL     -0.044874
    147 C48         6.4410    4.9330   -3.6010 c3        1 MOL      0.143255
    148 N13         6.1880    5.3590   -5.0160 n4        1 MOL     -0.426829
    149 H67         6.4690   -0.0840   -1.7020 hn        1 MOL      0.207420
    150 H68         7.5880    1.6870    0.1450 h1        1 MOL      0.124726
    151 H69         5.5090    3.2400   -1.1040 hc        1 MOL      0.046390
    152 H70         5.6820    1.8240   -2.1460 hc        1 MOL      0.046390
    153 H71         8.2010    2.2770   -2.0680 hc        1 MOL      0.050307
    154 H72         7.6750    3.9590   -1.5040 hc        1 MOL      0.050307
    155 H73         6.4120    2.8140   -4.0050 hc        1 MOL      0.024054
    156 H74         8.0190    3.6570   -4.0470 hc        1 MOL      0.024054
    157 H75         7.0890    5.6290   -3.0780 hx        1 MOL      0.061666
    158 H76         5.5820    4.8640   -2.9370 hx        1 MOL      0.061666
    159 H77         6.9420    5.0990   -5.6370 hn        1 MOL      0.331576
    160 H78         5.3990    4.8920   -5.4350 hn        1 MOL      0.331576
    161 H79         6.0980    6.3640   -5.1050 hn        1 MOL      0.331576
    162 N14         5.1800    0.6740    1.4520 n         1 MOL     -0.189384
    163 C49         4.2560    0.6180    2.5480 c3        1 MOL     -0.225111
    164 C50         4.7040   -0.2970    3.6840 c         1 MOL      0.487358
    165 O22         4.2840   -0.0830    4.7910 o         1 MOL     -0.502646
    166 C51         2.9000    0.1080    1.9630 c3        1 MOL      0.275464
    167 C52         2.2070    1.0790    0.9540 c3        1 MOL     -0.192013
    168 C53         0.9420    0.4360    0.4610 c         1 MOL      0.653706
    169 O23         0.9930   -0.4650   -0.4460 o         1 MOL     -0.649222
    170 O24        -0.2120    0.7770    0.7960 o         1 MOL     -0.649222
    171 H80         5.3800   -0.2210    1.0300 hn        1 MOL      0.145610
    172 H81         4.1490    1.5920    3.0240 h1        1 MOL      0.160992
    173 H82         2.2020   -0.0690    2.7860 hc        1 MOL      0.006587
    174 H83         3.0900   -0.7680    1.3370 hc        1 MOL      0.006587
    175 H84         2.8670    1.2550    0.1060 hc        1 MOL      0.016681
    176 H85         1.9760    1.9990    1.4920 hc        1 MOL      0.016681
    177 N15         5.5930   -1.3390    3.4160 n         1 MOL     -0.263619
    178 C54         5.8950   -2.3790    4.3830 c3        1 MOL     -0.262057
    179 H86         5.1200   -2.3980    5.1500 h1        1 MOL      0.112524
    180 H87         5.9310   -3.3450    3.8800 h1        1 MOL      0.112524
    181 H88         6.8600   -2.1740    4.8480 h1        1 MOL      0.112524
    182 H89         5.9820   -1.4160    2.4800 hn        1 MOL      0.226237
    183 Ca1        -1.4420   -0.1630   -1.3120 Ca        1 MOL      1.718166
    184 O25         0.2030    0.9890   -3.4320 oh        1 MOL     -0.777970
    185 H90         0.2610    1.9350   -3.5760 ho        1 MOL      0.377977
    186 H91         0.1370    0.6210   -4.3180 ho        1 MOL      0.377977
    187 O26        -0.8840   -1.9790   -3.1690 oh        1 MOL     -0.777970
    188 H92        -0.6450   -1.7660   -4.0780 ho        1 MOL      0.377977
    189 H93        -1.2530   -2.8670   -3.2270 ho        1 MOL      0.377977
@<TRIPOS>BOND
     1    1    2 1   
     2    1    4 1   
     3    1    5 1   
     4    1    6 1   
     5    2    3 2   
     6    2    7 1   
     7    7    8 1   
     8    7   15 1   
     9    8    9 1   
    10    8   11 1   
    11    8   16 1   
    12    9   10 2   
    13    9   19 1   
    14   11   12 1   
    15   11   17 1   
    16   11   18 1   
    17   12   13 1   
    18   12   14 1   
    19   19   20 1   
    20   19   28 1   
    21   20   21 1   
    22   20   23 1   
    23   20   29 1   
    24   21   22 2   
    25   21   41 1   
    26   23   24 1   
    27   23   30 1   
    28   23   31 1   
    29   24   25 1   
    30   24   32 1   
    31   24   33 1   
    32   25   26 1   
    33   25   34 1   
    34   25   35 1   
    35   26   27 1   
    36   26   36 1   
    37   26   37 1   
    38   27   38 1   
    39   27   39 1   
    40   27   40 1   
    41   41   42 1   
    42   41   49 1   
    43   42   43 1   
    44   42   45 1   
    45   42   50 1   
    46   43   44 2   
    47   43   53 1   
    48   45   46 1   
    49   45   51 1   
    50   45   52 1   
    51   46   47 1   
    52   46   48 1   
    53   53   54 1   
    54   53   57 1   
    55   54   55 1   
    56   54   58 1   
    57   54   59 1   
    58   55   56 2   
    59   55   60 1   
    60   60   61 1   
    61   60   68 1   
    62   61   62 1   
    63   61   64 1   
    64   61   69 1   
    65   62   63 2   
    66   62   72 1   
    67   64   65 1   
    68   64   70 1   
    69   64   71 1   
    70   65   66 1   
    71   65   67 1   
    72   72   73 1   
    73   72   76 1   
    74   73   74 1   
    75   73   77 1   
    76   73   78 1   
    77   74   75 2   
    78   74   79 1   
    79   79   80 1   
    80   79   86 1   
    81   80   81 1   
    82   80   83 1   
    83   80   87 1   
    84   81   82 2   
    85   81   93 1   
    86   83   84 1   
    87   83   85 1   
    88   83   88 1   
    89   84   90 1   
    90   84   91 1   
    91   84   92 1   
    92   85   89 1   
    93   93   94 1   
    94   93  101 1   
    95   94   95 1   
    96   94   97 1   
    97   94  102 1   
    98   95   96 2   
    99   95  112 1   
   100   97   98 1   
   101   97   99 1   
   102   97  103 1   
   103   98  100 1   
   104   98  104 1   
   105   98  105 1   
   106   99  106 1   
   107   99  107 1   
   108   99  108 1   
   109  100  109 1   
   110  100  110 1   
   111  100  111 1   
   112  112  113 1   
   113  112  119 1   
   114  113  114 1   
   115  113  116 1   
   116  113  120 1   
   117  114  115 2   
   118  114  126 1   
   119  116  117 1   
   120  116  118 1   
   121  116  121 1   
   122  117  123 1   
   123  117  124 1   
   124  117  125 1   
   125  118  122 1   
   126  126  127 1   
   127  126  133 1   
   128  127  128 1   
   129  127  130 1   
   130  127  134 1   
   131  128  129 2   
   132  128  140 1   
   133  130  131 1   
   134  130  132 1   
   135  130  135 1   
   136  131  137 1   
   137  131  138 1   
   138  131  139 1   
   139  132  136 1   
   140  140  141 1   
   141  140  149 1   
   142  141  142 1   
   143  141  144 1   
   144  141  150 1   
   145  142  143 2   
   146  142  162 1   
   147  144  145 1   
   148  144  151 1   
   149  144  152 1   
   150  145  146 1   
   151  145  153 1   
   152  145  154 1   
   153  146  147 1   
   154  146  155 1   
   155  146  156 1   
   156  147  148 1   
   157  147  157 1   
   158  147  158 1   
   159  148  159 1   
   160  148  160 1   
   161  148  161 1   
   162  162  163 1   
   163  162  171 1   
   164  163  164 1   
   165  163  166 1   
   166  163  172 1   
   167  164  165 2   
   168  164  177 1   
   169  166  167 1   
   170  166  173 1   
   171  166  174 1   
   172  167  168 1   
   173  167  175 1   
   174  167  176 1   
   175  168  169 1   
   176  168  170 1   
   177  177  178 1   
   178  177  182 1   
   179  178  179 1   
   180  178  180 1   
   181  178  181 1   
   182  184  185 1   
   183  184  186 1   
   184  187  188 1   
   185  187  189 1   
@<TRIPOS>SUBSTRUCTURE
     1 MOL         1 TEMP              0 ****  ****    0 ROOT
