@<TRIPOS>MOLECULE
MOL
  189   185     1     0     0
SMALL
resp


@<TRIPOS>ATOM
      1 C1         -0.6800    0.8830    6.4270 c3        1 MOL     -0.216266
      2 C2         -0.6590    0.6730    4.8920 c         1 MOL      0.672373
      3 O1          0.2670    1.1220    4.2040 o         1 MOL     -0.571295
      4 H1         -1.6680    0.6310    6.8140 hc        1 MOL      0.056768
      5 H2          0.0680    0.2410    6.8930 hc        1 MOL      0.056768
      6 H3         -0.4580    1.9260    6.6550 hc        1 MOL      0.056768
      7 N1         -1.8140    0.1690    4.3630 n         1 MOL     -0.493930
      8 C3         -2.3550    0.6400    3.0870 c3        1 MOL     -0.007250
      9 C4         -2.7630    2.0930    3.1590 c         1 MOL      0.573878
     10 O2         -3.5550    2.4550    4.0440 o         1 MOL     -0.587202
     11 C5         -3.4760   -0.2690    2.5270 c3        1 MOL     -0.070041
     12 C6         -4.2350    0.3670    1.3490 c         1 MOL      0.707655
     13 O3         -5.4850    0.4020    1.3750 o         1 MOL     -0.632861
     14 O4         -3.5520    0.8620    0.3880 o         1 MOL     -0.632861
     15 H4         -2.3980   -0.3890    4.9700 hn        1 MOL      0.307989
     16 H5         -1.5510    0.5900    2.3510 h1        1 MOL      0.011987
     17 H6         -4.2580   -0.4930    3.2590 hc        1 MOL      0.013823
     18 H7         -2.9710   -1.2100    2.3260 hc        1 MOL      0.013823
     19 N2         -2.3550    2.8900    2.1770 n         1 MOL     -0.238618
     20 C7         -2.8090    4.3370    2.0110 c3        1 MOL     -0.005735
     21 C8         -3.6590    4.6160    0.7540 c         1 MOL      0.471662
     22 O5         -3.8760    5.8110    0.5140 o         1 MOL     -0.550208
     23 C9         -1.6140    5.3050    2.2090 c3        1 MOL      0.012530
     24 C10        -0.3660    5.2030    1.2580 c3        1 MOL     -0.022440
     25 C11        -0.6940    5.2220   -0.2640 c3        1 MOL     -0.148995
     26 C12         0.5860    4.9220   -1.0210 c3        1 MOL      0.189624
     27 N3          0.3500    4.4150   -2.3940 n4        1 MOL     -0.288306
     28 H8         -1.7450    2.4880    1.4810 hn        1 MOL      0.111973
     29 H9         -3.4360    4.5210    2.8780 h1        1 MOL      0.102023
     30 H10        -1.2610    5.1270    3.2250 hc        1 MOL      0.015029
     31 H11        -1.9770    6.3320    2.1830 hc        1 MOL      0.015029
     32 H12         0.2110    4.2960    1.4580 hc        1 MOL      0.027163
     33 H13         0.3300    5.9950    1.5670 hc        1 MOL      0.027163
     34 H14        -1.1220    6.2040   -0.4550 hc        1 MOL      0.082126
     35 H15        -1.3850    4.3990   -0.4340 hc        1 MOL      0.082126
     36 H16         1.0740    4.1490   -0.4260 hx        1 MOL     -0.015842
     37 H17         1.3330    5.7020   -1.1680 hx        1 MOL     -0.015842
     38 H18         0.1030    5.2030   -2.9880 hn        1 MOL      0.287395
     39 H19         1.2140    4.0760   -2.7820 hn        1 MOL      0.287395
     40 H20        -0.3340    3.6810   -2.3700 hn        1 MOL      0.287395
     41 N4         -4.1700    3.6570    0.0080 n         1 MOL     -0.284094
     42 C13        -4.9970    3.9620   -1.1520 c3        1 MOL     -0.124845
     43 C14        -6.4520    3.5090   -1.0140 c         1 MOL      0.665717
     44 O6         -7.3380    3.9330   -1.6910 o         1 MOL     -0.568961
     45 C15        -4.4090    3.2150   -2.3540 c3        1 MOL     -0.006492
     46 C16        -2.8750    3.4140   -2.4960 c         1 MOL      0.698578
     47 O7         -2.1380    2.4920   -2.1170 o         1 MOL     -0.702141
     48 O8         -2.3980    4.3460   -3.1520 o         1 MOL     -0.702141
     49 H21        -3.8920    2.7090    0.1940 hn        1 MOL      0.159353
     50 H22        -4.9660    5.0220   -1.4250 h1        1 MOL      0.105807
     51 H23        -4.8540    3.5900   -3.2770 hc        1 MOL      0.006460
     52 H24        -4.6160    2.1460   -2.2890 hc        1 MOL      0.006460
     53 N5         -6.6980    2.5320   -0.1160 n         1 MOL     -0.483221
     54 C17        -8.0020    1.8000    0.0960 c3        1 MOL     -0.029727
     55 C18        -8.0840    0.4200   -0.6290 c         1 MOL      0.391749
     56 O9         -9.1440   -0.0830   -0.9630 o         1 MOL     -0.557161
     57 H25        -5.9550    2.0340    0.3630 hn        1 MOL      0.265813
     58 H26        -8.8480    2.4650   -0.0820 h1        1 MOL      0.098971
     59 H27        -8.1780    1.5760    1.1520 h1        1 MOL      0.098971
     60 N6         -6.9580   -0.1390   -1.1010 n         1 MOL     -0.032117
     61 C19        -7.0200   -1.3000   -1.9530 c3        1 MOL      0.016186
     62 C20        -6.8640   -2.6510   -1.1430 c         1 MOL      0.439499
     63 O10        -7.1640   -3.6870   -1.7010 o         1 MOL     -0.541399
     64 C21        -5.8790   -1.1410   -2.9700 c3        1 MOL     -0.274037
     65 C22        -4.4280   -0.9580   -2.4660 c         1 MOL      0.751203
     66 O11        -3.4730   -0.5970   -3.2630 o         1 MOL     -0.767473
     67 O12        -4.1160   -1.2800   -1.2750 o         1 MOL     -0.767473
     68 H28        -6.0400    0.1800   -0.8280 hn        1 MOL      0.049826
     69 H29        -7.9760   -1.4590   -2.4590 h1        1 MOL      0.112440
     70 H30        -6.1460   -0.2230   -3.5140 hc        1 MOL      0.080343
     71 H31        -6.0910   -1.9400   -3.6690 hc        1 MOL      0.080343
     72 N7         -6.2920   -2.5810    0.0380 n         1 MOL     -0.257772
     73 C23        -5.9520   -3.7680    0.8700 c3        1 MOL     -0.081337
     74 C24        -4.8010   -4.6690    0.3960 c         1 MOL      0.510822
     75 O13        -4.7910   -5.8310    0.8270 o         1 MOL     -0.565796
     76 H32        -5.9770   -1.6680    0.3400 hn        1 MOL      0.184334
     77 H33        -6.8650   -4.3550    0.9300 h1        1 MOL      0.084405
     78 H34        -5.7940   -3.6080    1.9340 h1        1 MOL      0.084405
     79 N8         -3.9340   -4.1100   -0.3770 n         1 MOL     -0.393529
     80 C25        -2.5350   -4.6140   -0.4470 c3        1 MOL      0.230425
     81 C26        -1.4900   -3.6090    0.0240 c         1 MOL      0.529133
     82 O14        -1.7960   -2.4380    0.1860 o         1 MOL     -0.614633
     83 C27        -2.1920   -5.2530   -1.7940 c3        1 MOL      0.117328
     84 C28        -3.3800   -6.0440   -2.4130 c3        1 MOL     -0.424096
     85 O15        -1.9760   -4.2530   -2.7760 oh        1 MOL     -0.578219
     86 H35        -4.0660   -3.1350   -0.5950 hn        1 MOL      0.392771
     87 H36        -2.4300   -5.4120    0.2860 h1        1 MOL      0.003785
     88 H37        -1.3390   -5.8980   -1.6080 h1        1 MOL      0.034868
     89 H38        -2.0830   -4.7430   -3.5970 ho        1 MOL      0.397097
     90 H39        -3.1090   -6.5770   -3.3240 hc        1 MOL      0.130963
     91 H40        -3.6200   -6.7960   -1.6590 hc        1 MOL      0.130963
     92 H41        -4.3420   -5.5560   -2.5400 hc        1 MOL      0.130963
     93 N9         -0.2490   -4.0950    0.2190 n         1 MOL     -0.533181
     94 C29         0.9080   -3.2770    0.7440 c3        1 MOL      0.101554
     95 C30         2.0360   -3.4120   -0.2470 c         1 MOL      0.415389
     96 O16         2.6370   -4.4500   -0.4960 o         1 MOL     -0.545078
     97 C31         1.2000   -3.6090    2.2100 c3        1 MOL      0.128472
     98 C32        -0.0220   -3.1700    3.1410 c3        1 MOL      0.200521
     99 C33         2.5530   -3.0210    2.7230 c3        1 MOL     -0.450391
    100 C34         0.1660   -3.4210    4.6590 c3        1 MOL     -0.329991
    101 H42        -0.1070   -5.0870    0.0970 hn        1 MOL      0.311389
    102 H43         0.6320   -2.2180    0.7520 h1        1 MOL      0.063694
    103 H44         1.1230   -4.7000    2.1770 hc        1 MOL     -0.011859
    104 H45        -0.8200   -3.8530    2.8520 hc        1 MOL     -0.020489
    105 H46        -0.2920   -2.1120    3.0810 hc        1 MOL     -0.020489
    106 H47         2.4690   -1.9380    2.7660 hc        1 MOL      0.098396
    107 H48         2.7470   -3.5090    3.6800 hc        1 MOL      0.098396
    108 H49         3.3300   -3.2450    1.9910 hc        1 MOL      0.098396
    109 H50         0.8880   -2.7220    5.0780 hc        1 MOL      0.075643
    110 H51        -0.8190   -3.2820    5.0990 hc        1 MOL      0.075643
    111 H52         0.5690   -4.4160    4.8930 hc        1 MOL      0.075643
    112 N10         2.4120   -2.2670   -0.7470 n         1 MOL     -0.138817
    113 C35         3.6800   -2.1050   -1.5620 c3        1 MOL     -0.164899
    114 C36         4.8970   -1.9800   -0.6360 c         1 MOL      0.298171
    115 O17         4.7790   -1.5710    0.5170 o         1 MOL     -0.129102
    116 C37         3.6500   -0.9390   -2.5300 c3        1 MOL      0.508122
    117 C38         2.8410   -1.2250   -3.7580 c3        1 MOL     -0.587937
    118 O18         2.9700    0.2010   -1.9800 oh        1 MOL     -0.656828
    119 H53         1.8500   -1.4460   -0.5460 hn        1 MOL      0.180604
    120 H54         3.7860   -3.0260   -2.1330 h1        1 MOL      0.105944
    121 H55         4.6480   -0.8690   -2.9560 h1        1 MOL     -0.038739
    122 H56         2.2840   -0.0940   -1.3720 ho        1 MOL      0.411310
    123 H57         3.0900   -2.1000   -4.3540 hc        1 MOL      0.133496
    124 H58         1.8260   -1.4560   -3.4460 hc        1 MOL      0.133496
    125 H59         2.7250   -0.3160   -4.3520 hc        1 MOL      0.133496
    126 N11         6.0720   -2.3940   -1.1620 n         1 MOL     -0.403345
    127 C39         7.3960   -2.1520   -0.4230 c3        1 MOL     -0.096683
    128 C40         7.4690   -0.8390    0.4170 c         1 MOL      0.543512
    129 O19         7.9730   -0.8800    1.5030 o         1 MOL     -0.469040
    130 C41         8.5230   -2.1830   -1.4450 c3        1 MOL      0.269032
    131 C42         8.8850   -3.6120   -1.9410 c3        1 MOL     -0.439387
    132 O20         8.2030   -1.3540   -2.5290 oh        1 MOL     -0.616630
    133 H60         6.1210   -2.8280   -2.0720 hn        1 MOL      0.314782
    134 H61         7.6210   -2.9460    0.2940 h1        1 MOL      0.128171
    135 H62         9.3860   -1.7150   -0.9630 h1        1 MOL      0.027215
    136 H63         8.9780   -1.1810   -3.0610 ho        1 MOL      0.387161
    137 H64         9.2750   -4.1460   -1.0800 hc        1 MOL      0.133511
    138 H65         8.0120   -4.0370   -2.4470 hc        1 MOL      0.133511
    139 H66         9.6440   -3.6030   -2.7220 hc        1 MOL      0.133511
    140 N12         7.0960    0.3050   -0.2630 n         1 MOL     -0.553858
    141 C43         7.0610    1.6380    0.4040 c3        1 MOL      0.078579
    142 C44         6.0770    1.6790    1.5960 c         1 MOL      0.396342
    143 O21         6.4800    2.0650    2.6900 o         1 MOL     -0.486808
    144 C45         7.0070    2.8030   -0.6160 c3        1 MOL     -0.298846
    145 C46         8.0150    2.7140   -1.7450 c3        1 MOL      0.481941
    146 C47         7.8260    3.6900   -2.8840 c3        1 MOL     -0.173381
    147 C48         8.6220    3.3090   -4.1980 c3        1 MOL     -0.017536
    148 N13        10.0750    3.3700   -3.9810 n4        1 MOL     -0.265937
    149 H67         7.0370    0.2350   -1.2700 hn        1 MOL      0.315561
    150 H68         8.0350    1.6460    0.9060 h1        1 MOL      0.081885
    151 H69         7.0610    3.7710   -0.1150 hc        1 MOL      0.076443
    152 H70         6.0790    2.6940   -1.1710 hc        1 MOL      0.076443
    153 H71         7.8900    1.7470   -2.2460 hc        1 MOL     -0.120895
    154 H72         9.0520    2.7620   -1.4010 hc        1 MOL     -0.120895
    155 H73         8.2520    4.6010   -2.4670 hc        1 MOL      0.067048
    156 H74         6.7580    3.8790   -3.0290 hc        1 MOL      0.067048
    157 H75         8.3320    3.8290   -5.1150 hx        1 MOL      0.109526
    158 H76         8.4640    2.2470   -4.4150 hx        1 MOL      0.109526
    159 H77        10.3680    2.6090   -3.3820 hn        1 MOL      0.300536
    160 H78        10.6610    3.3070   -4.8100 hn        1 MOL      0.300536
    161 H79        10.3600    4.1960   -3.4800 hn        1 MOL      0.300536
    162 N14         4.8530    1.2250    1.3880 n         1 MOL     -0.181968
    163 C49         3.8840    0.9780    2.4380 c3        1 MOL     -0.171897
    164 C50         4.3920    0.1550    3.5950 c         1 MOL      0.483231
    165 O22         4.0670    0.4240    4.7620 o         1 MOL     -0.541315
    166 C51         2.5840    0.4830    1.7700 c3        1 MOL      0.087269
    167 C52         1.8880    1.5990    1.0620 c3        1 MOL     -0.324640
    168 C53         0.6480    1.0770    0.3060 c         1 MOL      0.748860
    169 O23         0.6900    0.1590   -0.5750 o         1 MOL     -0.688711
    170 O24        -0.4180    1.6600    0.3920 o         1 MOL     -0.688711
    171 H80         4.4890    1.0700    0.4580 hn        1 MOL      0.193643
    172 H81         3.7110    1.9150    2.9730 h1        1 MOL      0.120551
    173 H82         1.9690    0.0470    2.5580 hc        1 MOL      0.044748
    174 H83         2.8470   -0.3360    1.1080 hc        1 MOL      0.044748
    175 H84         2.5720    2.1480    0.4130 hc        1 MOL      0.086913
    176 H85         1.6090    2.2470    1.8930 hc        1 MOL      0.086913
    177 N15         5.1960   -0.8700    3.3640 n         1 MOL      0.008269
    178 C54         5.8100   -1.7770    4.3560 c3        1 MOL     -0.409277
    179 H86         6.7580   -1.3570    4.6930 h1        1 MOL      0.139975
    180 H87         5.1400   -1.8910    5.2080 h1        1 MOL      0.139975
    181 H88         5.9870   -2.7500    3.8990 h1        1 MOL      0.139975
    182 H89         5.2900   -1.1870    2.4110 hn        1 MOL      0.035997
    183 Ca1        -1.7920    0.0020   -1.2920 Ca        1 MOL      1.732068
    184 O25        -0.5170   -1.8620   -2.7580 oh        1 MOL     -0.826165
    185 H90        -0.9590   -2.6960   -2.9170 ho        1 MOL      0.392634
    186 H91        -0.2720   -1.5560   -3.6340 ho        1 MOL      0.392634
    187 O26        -0.4110    0.7550   -3.6310 oh        1 MOL     -0.826165
    188 H92        -0.7370    1.5220   -4.1110 ho        1 MOL      0.392634
    189 H93        -0.3570    0.0690   -4.2890 ho        1 MOL      0.392634
@<TRIPOS>BOND
     1    1    2 1   
     2    1    4 1   
     3    1    5 1   
     4    1    6 1   
     5    2    3 2   
     6    2    7 1   
     7    7    8 1   
     8    7   15 1   
     9    8    9 1   
    10    8   11 1   
    11    8   16 1   
    12    9   10 2   
    13    9   19 1   
    14   11   12 1   
    15   11   17 1   
    16   11   18 1   
    17   12   13 1   
    18   12   14 1   
    19   19   20 1   
    20   19   28 1   
    21   20   21 1   
    22   20   23 1   
    23   20   29 1   
    24   21   22 2   
    25   21   41 1   
    26   23   24 1   
    27   23   30 1   
    28   23   31 1   
    29   24   25 1   
    30   24   32 1   
    31   24   33 1   
    32   25   26 1   
    33   25   34 1   
    34   25   35 1   
    35   26   27 1   
    36   26   36 1   
    37   26   37 1   
    38   27   38 1   
    39   27   39 1   
    40   27   40 1   
    41   41   42 1   
    42   41   49 1   
    43   42   43 1   
    44   42   45 1   
    45   42   50 1   
    46   43   44 2   
    47   43   53 1   
    48   45   46 1   
    49   45   51 1   
    50   45   52 1   
    51   46   47 1   
    52   46   48 1   
    53   53   54 1   
    54   53   57 1   
    55   54   55 1   
    56   54   58 1   
    57   54   59 1   
    58   55   56 2   
    59   55   60 1   
    60   60   61 1   
    61   60   68 1   
    62   61   62 1   
    63   61   64 1   
    64   61   69 1   
    65   62   63 2   
    66   62   72 1   
    67   64   65 1   
    68   64   70 1   
    69   64   71 1   
    70   65   66 1   
    71   65   67 1   
    72   72   73 1   
    73   72   76 1   
    74   73   74 1   
    75   73   77 1   
    76   73   78 1   
    77   74   75 2   
    78   74   79 1   
    79   79   80 1   
    80   79   86 1   
    81   80   81 1   
    82   80   83 1   
    83   80   87 1   
    84   81   82 2   
    85   81   93 1   
    86   83   84 1   
    87   83   85 1   
    88   83   88 1   
    89   84   90 1   
    90   84   91 1   
    91   84   92 1   
    92   85   89 1   
    93   93   94 1   
    94   93  101 1   
    95   94   95 1   
    96   94   97 1   
    97   94  102 1   
    98   95   96 2   
    99   95  112 1   
   100   97   98 1   
   101   97   99 1   
   102   97  103 1   
   103   98  100 1   
   104   98  104 1   
   105   98  105 1   
   106   99  106 1   
   107   99  107 1   
   108   99  108 1   
   109  100  109 1   
   110  100  110 1   
   111  100  111 1   
   112  112  113 1   
   113  112  119 1   
   114  113  114 1   
   115  113  116 1   
   116  113  120 1   
   117  114  115 2   
   118  114  126 1   
   119  116  117 1   
   120  116  118 1   
   121  116  121 1   
   122  117  123 1   
   123  117  124 1   
   124  117  125 1   
   125  118  122 1   
   126  126  127 1   
   127  126  133 1   
   128  127  128 1   
   129  127  130 1   
   130  127  134 1   
   131  128  129 2   
   132  128  140 1   
   133  130  131 1   
   134  130  132 1   
   135  130  135 1   
   136  131  137 1   
   137  131  138 1   
   138  131  139 1   
   139  132  136 1   
   140  140  141 1   
   141  140  149 1   
   142  141  142 1   
   143  141  144 1   
   144  141  150 1   
   145  142  143 2   
   146  142  162 1   
   147  144  145 1   
   148  144  151 1   
   149  144  152 1   
   150  145  146 1   
   151  145  153 1   
   152  145  154 1   
   153  146  147 1   
   154  146  155 1   
   155  146  156 1   
   156  147  148 1   
   157  147  157 1   
   158  147  158 1   
   159  148  159 1   
   160  148  160 1   
   161  148  161 1   
   162  162  163 1   
   163  162  171 1   
   164  163  164 1   
   165  163  166 1   
   166  163  172 1   
   167  164  165 2   
   168  164  177 1   
   169  166  167 1   
   170  166  173 1   
   171  166  174 1   
   172  167  168 1   
   173  167  175 1   
   174  167  176 1   
   175  168  169 1   
   176  168  170 1   
   177  177  178 1   
   178  177  182 1   
   179  178  179 1   
   180  178  180 1   
   181  178  181 1   
   182  184  185 1   
   183  184  186 1   
   184  187  188 1   
   185  187  189 1   
@<TRIPOS>SUBSTRUCTURE
     1 MOL         1 TEMP              0 ****  ****    0 ROOT
