@<TRIPOS>MOLECULE
MOL
  175   173     1     0     0
SMALL
resp


@<TRIPOS>ATOM
      1 C1          0.7810    4.2640    5.2920 c3        1 MOL     -0.374231
      2 C2          0.1290    4.1920    3.9220 c         1 MOL      0.775347
      3 O1          0.8140    4.3160    2.9280 o         1 MOL     -0.574076
      4 H1          0.4420    5.1630    5.8070 hc        1 MOL      0.082245
      5 H2          0.5040    3.3860    5.8740 hc        1 MOL      0.082245
      6 H3          1.8650    4.2980    5.1770 hc        1 MOL      0.082245
      7 N1         -1.1410    4.0890    3.8680 n         1 MOL     -0.651377
      8 C3         -1.8450    3.6080    2.6930 c3        1 MOL      0.145532
      9 C4         -1.9560    4.8030    1.7230 c         1 MOL      0.523850
     10 O2         -2.3680    5.9480    2.0400 o         1 MOL     -0.590020
     11 C5         -3.2380    3.0680    3.0310 c3        1 MOL     -0.187687
     12 C6         -3.9620    2.3990    1.9090 c         1 MOL      0.840324
     13 O3         -5.1450    1.9830    2.0690 o         1 MOL     -0.742663
     14 O4         -3.4220    2.3140    0.8120 o         1 MOL     -0.742663
     15 H4         -1.7330    4.0890    4.6810 hn        1 MOL      0.334252
     16 H5         -1.2880    2.8380    2.1640 h1        1 MOL      0.078516
     17 H6         -3.8730    3.8630    3.3980 hc        1 MOL      0.021833
     18 H7         -3.1970    2.3460    3.8440 hc        1 MOL      0.021833
     19 N2         -1.8000    4.5310    0.4000 n         1 MOL     -0.268176
     20 C7         -1.8070    5.4260   -0.7000 c3        1 MOL      0.083950
     21 C8         -2.9580    5.1940   -1.7160 c         1 MOL      0.506201
     22 O5         -3.3900    6.0200   -2.4970 o         1 MOL     -0.566722
     23 C9         -0.4580    5.3650   -1.4000 c3        1 MOL     -0.211525
     24 H8         -1.4780    3.5880    0.2160 hn        1 MOL      0.236114
     25 H9         -1.9510    6.4420   -0.3510 h1        1 MOL      0.041882
     26 H10        -0.3140    6.1760   -2.1180 hc        1 MOL      0.059007
     27 H11         0.3430    5.2410   -0.6680 hc        1 MOL      0.059007
     28 H12        -0.2300    4.5010   -2.0250 hc        1 MOL      0.059007
     29 N3         -3.5120    3.9380   -1.6620 n         1 MOL     -0.402599
     30 C10        -4.5140    3.5170   -2.6580 c3        1 MOL      0.145029
     31 C11        -5.7240    2.7170   -2.2920 c         1 MOL      0.367359
     32 O6         -6.6290    2.6530   -3.1170 o         1 MOL     -0.570116
     33 C12        -3.6950    2.7610   -3.7480 c3        1 MOL     -0.118729
     34 C13        -3.1570    1.3850   -3.3450 c         1 MOL      0.668107
     35 O7         -3.6380    0.8400   -2.3260 o         1 MOL     -0.653351
     36 O8         -2.1890    0.9780   -3.9400 o         1 MOL     -0.653351
     37 H13        -3.2980    3.2870   -0.9210 hn        1 MOL      0.189446
     38 H14        -4.9740    4.4360   -3.0120 h1        1 MOL      0.067812
     39 H15        -2.8530    3.3780   -4.0830 hc        1 MOL      0.012756
     40 H16        -4.4000    2.7490   -4.5860 hc        1 MOL      0.012756
     41 N4         -5.9390    2.2060   -1.1070 n         1 MOL     -0.108146
     42 C14        -7.1420    1.4520   -0.6410 c3        1 MOL     -0.431318
     43 C15        -7.3160   -0.0110   -1.1040 c         1 MOL      0.569352
     44 O9         -8.3650   -0.6040   -0.8810 o         1 MOL     -0.600595
     45 H17        -5.2220    2.4830   -0.4470 hn        1 MOL      0.157233
     46 H18        -7.9710    2.0250   -1.0610 h1        1 MOL      0.179868
     47 H19        -7.2860    1.5570    0.4280 h1        1 MOL      0.179868
     48 N5         -6.3510   -0.6490   -1.7410 n         1 MOL     -0.246962
     49 C16        -6.3610   -2.0470   -2.2840 c3        1 MOL     -0.003684
     50 C17        -6.4730   -3.2130   -1.2320 c         1 MOL      0.475768
     51 O10        -6.8610   -4.3650   -1.5350 o         1 MOL     -0.586009
     52 C18        -5.1150   -2.1250   -3.1330 c3        1 MOL      0.036161
     53 C19        -3.8180   -2.0980   -2.3580 c         1 MOL      0.414410
     54 N6         -2.7960   -2.0880   -3.1450 n         1 MOL     -0.520958
     55 O11        -3.6990   -2.0150   -1.1450 o         1 MOL     -0.567888
     56 H20        -5.4870   -0.1910   -1.9600 hn        1 MOL      0.194261
     57 H21        -7.2220   -2.1730   -2.9390 h1        1 MOL      0.066599
     58 H22        -5.1100   -1.3660   -3.9180 hc        1 MOL      0.010805
     59 H23        -5.2200   -3.0460   -3.7100 hc        1 MOL      0.010805
     60 H24        -2.9960   -2.2050   -4.1310 hn        1 MOL      0.302957
     61 H25        -1.8490   -2.1580   -2.8040 hn        1 MOL      0.302957
     62 N7         -6.0480   -2.9420    0.0170 n         1 MOL     -0.149141
     63 C20        -6.1650   -3.9020    1.1260 c3        1 MOL     -0.102022
     64 C21        -4.8380   -4.2260    1.8590 c         1 MOL      0.470658
     65 O12        -4.8490   -4.8440    2.9130 o         1 MOL     -0.599789
     66 H26        -5.5960   -2.0600    0.2230 hn        1 MOL      0.114413
     67 H27        -6.4710   -4.9250    0.9170 h1        1 MOL      0.086505
     68 H28        -6.9400   -3.5410    1.8070 h1        1 MOL      0.086505
     69 N8         -3.7420   -4.0460    1.2150 n         1 MOL     -0.298901
     70 C22        -2.4420   -4.6310    1.7160 c3        1 MOL      0.127935
     71 C23        -1.4120   -3.4630    1.5970 c         1 MOL      0.469956
     72 O13        -1.7900   -2.3390    1.2030 o         1 MOL     -0.592259
     73 C24        -2.0890   -5.8010    0.8090 c3        1 MOL      0.203556
     74 C25        -3.1480   -6.9740    0.9300 c3        1 MOL     -0.568840
     75 O14        -2.1470   -5.6380   -0.5850 oh        1 MOL     -0.614112
     76 H29        -3.8010   -3.7530    0.2480 hn        1 MOL      0.315197
     77 H30        -2.4490   -4.9110    2.7600 h1        1 MOL      0.074896
     78 H31        -1.0730   -6.1470    0.9930 h1        1 MOL      0.012475
     79 H32        -1.6180   -6.3780   -0.8890 ho        1 MOL      0.423058
     80 H33        -3.2570   -7.0850    2.0020 hc        1 MOL      0.153790
     81 H34        -4.1160   -6.8120    0.4550 hc        1 MOL      0.153790
     82 H35        -2.8400   -7.8650    0.3930 hc        1 MOL      0.153790
     83 N9         -0.2070   -3.7220    2.1610 n         1 MOL     -0.295876
     84 C26         1.0170   -2.8450    2.1770 c3        1 MOL     -0.004753
     85 C27         1.7550   -3.1920    0.8620 c         1 MOL      0.419879
     86 O15         2.3120   -4.2770    0.6960 o         1 MOL     -0.539758
     87 C28         1.8620   -3.1230    3.4300 c3        1 MOL      0.119245
     88 C29         1.2250   -2.5310    4.6990 c3        1 MOL      0.046591
     89 C30         3.3520   -2.6500    3.2400 c3        1 MOL     -0.176742
     90 C31         0.6060   -1.1210    4.5050 c3        1 MOL      0.038681
     91 H36        -0.1820   -4.6490    2.5650 hn        1 MOL      0.202204
     92 H37         0.6070   -1.8360    2.1310 h1        1 MOL     -0.038316
     93 H38         2.0000   -4.1880    3.5990 hc        1 MOL      0.009106
     94 H39         1.9090   -2.5680    5.5410 hc        1 MOL     -0.032458
     95 H40         0.4390   -3.2550    4.9240 hc        1 MOL     -0.032458
     96 H41         3.8370   -2.9960    4.1560 hc        1 MOL      0.042884
     97 H42         3.8170   -3.1410    2.3840 hc        1 MOL      0.042884
     98 H43         3.3960   -1.5700    3.3730 hc        1 MOL      0.042884
     99 H44        -0.4060   -1.1930    4.1090 hc        1 MOL     -0.016962
    100 H45         0.4010   -0.7120    5.4950 hc        1 MOL     -0.016962
    101 H46         1.3020   -0.4700    3.9810 hc        1 MOL     -0.016962
    102 N10         1.7510   -2.1840   -0.0300 n         1 MOL     -0.274985
    103 C32         2.6220   -2.0350   -1.2050 c3        1 MOL      0.054975
    104 C33         4.0420   -1.6940   -0.7980 c         1 MOL      0.566307
    105 O16         4.2230   -0.9560    0.1920 o         1 MOL     -0.341961
    106 C34         1.9790   -1.0900   -2.2190 c3        1 MOL     -0.150576
    107 C35         0.4550   -1.3300   -2.3000 c         1 MOL      0.715746
    108 O17        -0.3120   -0.8780   -1.4470 o         1 MOL     -0.663992
    109 O18         0.0620   -2.0590   -3.2150 o         1 MOL     -0.663992
    110 H47         1.0340   -1.4950    0.1170 hn        1 MOL      0.265595
    111 H48         2.8290   -2.9850   -1.6900 h1        1 MOL      0.033890
    112 H49         2.2770   -1.3320   -3.2310 hc        1 MOL      0.044769
    113 H50         2.1470   -0.0530   -1.9260 hc        1 MOL      0.044769
    114 N11         5.0710   -2.1230   -1.5530 n         1 MOL     -0.687094
    115 C36         6.4580   -1.7410   -1.3600 c3        1 MOL      0.354337
    116 C37         6.5740   -0.2370   -1.0940 c         1 MOL      0.337016
    117 O19         7.1330    0.0880   -0.0280 o         1 MOL     -0.490273
    118 C38         7.3190   -2.2330   -2.5290 c3        1 MOL     -0.180137
    119 C39         8.7820   -1.8030   -2.4110 ca        1 MOL      0.075264
    120 C40         9.4210   -2.1060   -1.1590 ca        1 MOL     -0.129978
    121 C41         9.5330   -1.1920   -3.4240 ca        1 MOL     -0.129978
    122 C42        10.7450   -1.6620   -0.9200 ca        1 MOL     -0.179856
    123 C43        10.8470   -0.7030   -3.1490 ca        1 MOL     -0.179856
    124 C44        11.4230   -0.8400   -1.8520 ca        1 MOL     -0.046883
    125 H51         4.9190   -2.6410   -2.4050 hn        1 MOL      0.335687
    126 H52         6.8060   -2.2280   -0.4540 h1        1 MOL      0.064033
    127 H53         6.9690   -1.7930   -3.4550 hc        1 MOL      0.059119
    128 H54         7.4240   -3.3080   -2.5800 hc        1 MOL      0.059119
    129 H55         8.8750   -2.6740   -0.4130 ha        1 MOL      0.111246
    130 H56         9.0940   -1.0810   -4.3950 ha        1 MOL      0.111246
    131 H57        11.1990   -1.7660    0.0520 ha        1 MOL      0.125156
    132 H58        11.4830   -0.2550   -3.9010 ha        1 MOL      0.125156
    133 H59        12.3920   -0.3910   -1.6270 ha        1 MOL      0.097558
    134 N12         5.9210    0.7620   -1.8260 n         1 MOL     -0.079537
    135 C45         6.0500    2.1680   -1.4710 c3        1 MOL      0.099714
    136 C46         5.5140    2.5160   -0.0580 c         1 MOL      0.274577
    137 O20         5.9150    3.4330    0.5760 o         1 MOL     -0.509133
    138 C47         5.3550    2.9490   -2.5840 c3        1 MOL     -0.197798
    139 C48         4.4170    1.8870   -3.1370 c3        1 MOL     -0.021219
    140 C49         5.2380    0.6150   -3.0880 c3        1 MOL     -0.129746
    141 H60         7.1000    2.4370   -1.4590 h1        1 MOL      0.049809
    142 H61         4.8780    3.8690   -2.2420 hc        1 MOL      0.082261
    143 H62         6.1460    3.2560   -3.2650 hc        1 MOL      0.082261
    144 H63         3.5730    1.7700   -2.4640 hc        1 MOL      0.058250
    145 H64         3.9760    2.1350   -4.1070 hc        1 MOL      0.058250
    146 H65         4.6920   -0.3200   -3.1450 h1        1 MOL      0.043033
    147 H66         6.0540    0.6890   -3.8140 h1        1 MOL      0.043033
    148 N13         4.5640    1.7900    0.4860 n         1 MOL      0.022605
    149 C50         3.9920    2.0090    1.7780 c3        1 MOL     -0.079479
    150 C51         4.9180    1.4810    2.8860 c         1 MOL      0.485360
    151 O21         5.2060    2.0920    3.8450 o         1 MOL     -0.551914
    152 C52         2.5350    1.5230    1.7100 c3        1 MOL      0.058432
    153 C53         1.7490    2.1010    0.5130 c3        1 MOL     -0.276921
    154 C54         0.2710    1.6790    0.5390 c         1 MOL      0.575724
    155 O22        -0.1900    0.9030    1.3810 o         1 MOL     -0.682868
    156 O23        -0.4570    2.0160   -0.4580 o         1 MOL     -0.682868
    157 H67         4.2640    0.9880   -0.0530 hn        1 MOL      0.042131
    158 H68         3.8250    3.0690    1.9720 h1        1 MOL      0.078336
    159 H69         2.0450    1.8240    2.6260 hc        1 MOL      0.014129
    160 H70         2.4440    0.4370    1.7570 hc        1 MOL      0.014129
    161 H71         2.1960    1.7860   -0.4390 hc        1 MOL      0.104152
    162 H72         1.8360    3.1840    0.6430 hc        1 MOL      0.104152
    163 N14         5.4930    0.3300    2.5590 n         1 MOL      0.012005
    164 C55         6.5190   -0.2810    3.3910 c3        1 MOL     -0.209104
    165 H73         6.8590   -1.2060    2.9270 h1        1 MOL      0.068254
    166 H74         7.3600    0.4050    3.4930 h1        1 MOL      0.068254
    167 H75         6.1060   -0.4990    4.3760 h1        1 MOL      0.068254
    168 H76         5.1060   -0.0860    1.7230 hn        1 MOL     -0.008009
    169 Ca1        -2.2480   -0.0270   -0.1210 Ca        1 MOL      1.689081
    170 O24        -2.3390   -0.0110    2.6290 oh        1 MOL     -0.767567
    171 H77        -1.4470    0.3050    2.6480 ho        1 MOL      0.391671
    172 H78        -2.5130   -0.2970    3.5260 ho        1 MOL      0.391671
    173 O25        -4.9880   -0.3600    1.0400 oh        1 MOL     -0.767567
    174 H79        -4.9250   -0.6680    1.9430 ho        1 MOL      0.391671
    175 H80        -5.2800    0.5440    1.1140 ho        1 MOL      0.391671
@<TRIPOS>BOND
     1    1    2 1   
     2    1    4 1   
     3    1    5 1   
     4    1    6 1   
     5    2    3 2   
     6    2    7 1   
     7    7    8 1   
     8    7   15 1   
     9    8    9 1   
    10    8   11 1   
    11    8   16 1   
    12    9   10 2   
    13    9   19 1   
    14   11   12 1   
    15   11   17 1   
    16   11   18 1   
    17   12   13 1   
    18   12   14 1   
    19   19   20 1   
    20   19   24 1   
    21   20   21 1   
    22   20   23 1   
    23   20   25 1   
    24   21   22 2   
    25   21   29 1   
    26   23   26 1   
    27   23   27 1   
    28   23   28 1   
    29   29   30 1   
    30   29   37 1   
    31   30   31 1   
    32   30   33 1   
    33   30   38 1   
    34   31   32 2   
    35   31   41 1   
    36   33   34 1   
    37   33   39 1   
    38   33   40 1   
    39   34   35 1   
    40   34   36 1   
    41   41   42 1   
    42   41   45 1   
    43   42   43 1   
    44   42   46 1   
    45   42   47 1   
    46   43   44 2   
    47   43   48 1   
    48   48   49 1   
    49   48   56 1   
    50   49   50 1   
    51   49   52 1   
    52   49   57 1   
    53   50   51 2   
    54   50   62 1   
    55   52   53 1   
    56   52   58 1   
    57   52   59 1   
    58   53   54 1   
    59   53   55 2   
    60   54   60 1   
    61   54   61 1   
    62   62   63 1   
    63   62   66 1   
    64   63   64 1   
    65   63   67 1   
    66   63   68 1   
    67   64   65 2   
    68   64   69 1   
    69   69   70 1   
    70   69   76 1   
    71   70   71 1   
    72   70   73 1   
    73   70   77 1   
    74   71   72 2   
    75   71   83 1   
    76   73   74 1   
    77   73   75 1   
    78   73   78 1   
    79   74   80 1   
    80   74   81 1   
    81   74   82 1   
    82   75   79 1   
    83   83   84 1   
    84   83   91 1   
    85   84   85 1   
    86   84   87 1   
    87   84   92 1   
    88   85   86 2   
    89   85  102 1   
    90   87   88 1   
    91   87   89 1   
    92   87   93 1   
    93   88   90 1   
    94   88   94 1   
    95   88   95 1   
    96   89   96 1   
    97   89   97 1   
    98   89   98 1   
    99   90   99 1   
   100   90  100 1   
   101   90  101 1   
   102  102  103 1   
   103  102  110 1   
   104  103  104 1   
   105  103  106 1   
   106  103  111 1   
   107  104  105 2   
   108  104  114 1   
   109  106  107 1   
   110  106  112 1   
   111  106  113 1   
   112  107  108 1   
   113  107  109 1   
   114  114  115 1   
   115  114  125 1   
   116  115  116 1   
   117  115  118 1   
   118  115  126 1   
   119  116  117 2   
   120  116  134 1   
   121  118  119 1   
   122  118  127 1   
   123  118  128 1   
   124  119  120 ar  
   125  119  121 ar  
   126  120  122 ar  
   127  120  129 1   
   128  121  123 ar  
   129  121  130 1   
   130  122  124 ar  
   131  122  131 1   
   132  123  124 ar  
   133  123  132 1   
   134  124  133 1   
   135  134  135 1   
   136  134  140 1   
   137  135  136 1   
   138  135  138 1   
   139  135  141 1   
   140  136  137 2   
   141  136  148 1   
   142  138  139 1   
   143  138  142 1   
   144  138  143 1   
   145  139  140 1   
   146  139  144 1   
   147  139  145 1   
   148  140  146 1   
   149  140  147 1   
   150  148  149 1   
   151  148  157 1   
   152  149  150 1   
   153  149  152 1   
   154  149  158 1   
   155  150  151 2   
   156  150  163 1   
   157  152  153 1   
   158  152  159 1   
   159  152  160 1   
   160  153  154 1   
   161  153  161 1   
   162  153  162 1   
   163  154  155 1   
   164  154  156 1   
   165  163  164 1   
   166  163  168 1   
   167  164  165 1   
   168  164  166 1   
   169  164  167 1   
   170  170  171 1   
   171  170  172 1   
   172  173  174 1   
   173  173  175 1   
@<TRIPOS>SUBSTRUCTURE
     1 MOL         1 TEMP              0 ****  ****    0 ROOT
