@<TRIPOS>MOLECULE
MOL
  175   173     1     0     0
SMALL
resp


@<TRIPOS>ATOM
      1 C1          0.9270    3.8210    5.4390 c3        1 MOL     -0.479648
      2 C2          0.3920    3.9230    4.0110 c         1 MOL      0.705394
      3 O1          1.1410    4.0550    3.0360 o         1 MOL     -0.538012
      4 H1          0.0920    3.8120    6.1390 hc        1 MOL      0.122327
      5 H2          1.5010    2.9010    5.5480 hc        1 MOL      0.122327
      6 H3          1.5680    4.6780    5.6500 hc        1 MOL      0.122327
      7 N1         -0.9340    3.8380    3.8310 n         1 MOL     -0.593874
      8 C3         -1.6420    3.6310    2.5460 c3        1 MOL      0.096752
      9 C4         -1.6200    4.9340    1.6140 c         1 MOL      0.548744
     10 O2         -1.7610    6.0530    2.0370 o         1 MOL     -0.540064
     11 C5         -3.1020    3.2860    2.8690 c3        1 MOL     -0.323258
     12 C6         -3.8460    2.7830    1.5980 c         1 MOL      0.771334
     13 O3         -3.2160    2.1040    0.7420 o         1 MOL     -0.695173
     14 O4         -5.0540    3.1030    1.4200 o         1 MOL     -0.695173
     15 H4         -1.6420    3.8070    4.5590 hn        1 MOL      0.310672
     16 H5         -1.2840    2.7660    1.9850 h1        1 MOL      0.140103
     17 H6         -3.6440    4.1170    3.3220 hc        1 MOL      0.059806
     18 H7         -3.1220    2.4380    3.5680 hc        1 MOL      0.059806
     19 N2         -1.7490    4.6390    0.2850 n         1 MOL     -0.550680
     20 C7         -2.1820    5.5990   -0.7610 c3        1 MOL      0.472538
     21 C8         -3.1730    5.1400   -1.8640 c         1 MOL      0.386919
     22 O5         -3.2600    5.7410   -2.9620 o         1 MOL     -0.571543
     23 C9         -0.9070    6.1250   -1.3320 c3        1 MOL     -0.391587
     24 H8         -1.6290    3.6840   -0.0100 hn        1 MOL      0.330447
     25 H9         -2.6870    6.4180   -0.2550 h1        1 MOL     -0.008929
     26 H10        -1.0130    7.1230   -1.7400 hc        1 MOL      0.084908
     27 H11        -0.3140    6.3760   -0.4520 hc        1 MOL      0.084908
     28 H12        -0.3590    5.3700   -1.8860 hc        1 MOL      0.084908
     29 N3         -4.0390    4.1460   -1.6760 n         1 MOL     -0.346175
     30 C10        -4.9740    3.5840   -2.7020 c3        1 MOL      0.189979
     31 C11        -6.2280    2.7590   -2.1980 c         1 MOL      0.227859
     32 O6         -7.2280    2.6310   -2.9210 o         1 MOL     -0.517656
     33 C12        -4.1180    2.6780   -3.4940 c3        1 MOL     -0.294860
     34 C13        -3.5050    1.4480   -2.7820 c         1 MOL      0.758741
     35 O7         -4.0260    0.8850   -1.7660 o         1 MOL     -0.705195
     36 O8         -2.3910    1.0130   -3.1030 o         1 MOL     -0.705195
     37 H13        -3.9020    3.5930   -0.8450 hn        1 MOL      0.138733
     38 H14        -5.3350    4.3890   -3.3560 h1        1 MOL      0.083464
     39 H15        -3.3600    3.3280   -3.9240 hc        1 MOL      0.078564
     40 H16        -4.7510    2.2620   -4.2810 hc        1 MOL      0.078564
     41 N4         -6.2990    2.1660   -0.9750 n         1 MOL     -0.027122
     42 C14        -7.3860    1.2990   -0.3590 c3        1 MOL     -0.084669
     43 C15        -7.5360   -0.1080   -0.8960 c         1 MOL      0.482398
     44 O9         -8.6790   -0.4710   -1.0610 o         1 MOL     -0.589216
     45 H17        -5.5260    2.2950   -0.3330 hn        1 MOL      0.109224
     46 H18        -8.3580    1.7820   -0.4220 h1        1 MOL      0.050797
     47 H19        -7.1040    1.1620    0.6850 h1        1 MOL      0.050797
     48 N5         -6.3930   -0.7180   -1.2690 n         1 MOL     -0.089136
     49 C16        -6.3690   -2.0350   -1.8750 c3        1 MOL     -0.149534
     50 C17        -6.3360   -3.1140   -0.7350 c         1 MOL      0.458553
     51 O10        -6.1640   -4.3050   -1.0120 o         1 MOL     -0.499967
     52 C18        -5.3060   -2.1070   -3.0290 c3        1 MOL      0.005313
     53 C19        -3.9240   -2.1200   -2.4760 c         1 MOL      0.392066
     54 N6         -3.0280   -2.3130   -3.3480 n         1 MOL     -0.481332
     55 O11        -3.6050   -1.8750   -1.3680 o         1 MOL     -0.476104
     56 H20        -5.5180   -0.2330   -1.1140 hn        1 MOL      0.140074
     57 H21        -7.2920   -2.1180   -2.4530 h1        1 MOL      0.113048
     58 H22        -5.4680   -1.2760   -3.7150 hc        1 MOL      0.036738
     59 H23        -5.5720   -2.9830   -3.6110 hc        1 MOL      0.036738
     60 H24        -3.2930   -2.4520   -4.3230 hn        1 MOL      0.278377
     61 H25        -2.0550   -2.2250   -3.0880 hn        1 MOL      0.278377
     62 N7         -6.6230   -2.7840    0.5340 n         1 MOL     -0.329936
     63 C20        -6.6610   -3.7830    1.6490 c3        1 MOL     -0.261655
     64 C21        -5.3210   -4.4260    1.8780 c         1 MOL      0.527538
     65 O12        -5.2440   -5.4010    2.5980 o         1 MOL     -0.575047
     66 H26        -6.7130   -1.8110    0.7980 hn        1 MOL      0.272038
     67 H27        -7.3570   -4.5900    1.4000 h1        1 MOL      0.144952
     68 H28        -6.9360   -3.2880    2.5850 h1        1 MOL      0.144952
     69 N8         -4.2540   -3.9680    1.2160 n         1 MOL     -0.017326
     70 C22        -2.8350   -4.5310    1.3120 c3        1 MOL     -0.498807
     71 C23        -1.7260   -3.4950    1.3420 c         1 MOL      0.773373
     72 O13        -1.8070   -2.3960    0.7380 o         1 MOL     -0.631505
     73 C24        -2.4720   -5.5260    0.1780 c3        1 MOL      0.691266
     74 C25        -3.3680   -6.7960    0.0630 c3        1 MOL     -0.455779
     75 O14        -2.5190   -4.8750   -1.0540 oh        1 MOL     -0.605005
     76 H29        -4.3820   -3.1060    0.7120 hn        1 MOL      0.037027
     77 H30        -2.6740   -5.1650    2.1870 h1        1 MOL      0.112371
     78 H31        -1.4610   -5.9250    0.2640 h1        1 MOL     -0.056990
     79 H32        -3.4090   -4.5360   -0.9790 ho        1 MOL      0.335476
     80 H33        -3.4100   -7.0880   -0.9830 hc        1 MOL      0.099748
     81 H34        -3.0030   -7.5610    0.7580 hc        1 MOL      0.099748
     82 H35        -4.3770   -6.5220    0.3540 hc        1 MOL      0.099748
     83 N9         -0.6390   -3.7700    2.0770 n         1 MOL     -0.500845
     84 C26         0.6450   -2.9830    1.9790 c3        1 MOL     -0.108270
     85 C27         1.3930   -3.1880    0.5890 c         1 MOL      0.618697
     86 O15         1.6490   -4.2540    0.1260 o         1 MOL     -0.540400
     87 C28         1.6090   -3.1000    3.2570 c3        1 MOL     -0.002867
     88 C29         0.9430   -2.5360    4.5070 c3        1 MOL      0.136718
     89 C30         3.0600   -2.4580    2.9950 c3        1 MOL     -0.046408
     90 C31         1.7680   -2.8110    5.8270 c3        1 MOL     -0.087439
     91 H36        -0.7410   -4.6050    2.6370 hn        1 MOL      0.294959
     92 H37         0.3090   -1.9590    2.1450 h1        1 MOL      0.080155
     93 H38         1.6720   -4.1580    3.5140 hc        1 MOL      0.024039
     94 H39        -0.0350   -3.0120    4.5410 hc        1 MOL     -0.033950
     95 H40         0.7930   -1.4580    4.4160 hc        1 MOL     -0.033950
     96 H41         3.5510   -2.9620    2.1730 hc        1 MOL      0.017139
     97 H42         3.0650   -1.3720    2.9440 hc        1 MOL      0.017139
     98 H43         3.6690   -2.7510    3.8450 hc        1 MOL      0.017139
     99 H44         1.8510   -3.8860    5.9960 hc        1 MOL      0.009261
    100 H45         2.7980   -2.4390    5.7870 hc        1 MOL      0.009261
    101 H46         1.2470   -2.3270    6.6470 hc        1 MOL      0.009261
    102 N10         1.8210   -2.0380    0.0290 n         1 MOL     -0.380416
    103 C32         2.5530   -1.9030   -1.2530 c3        1 MOL      0.050201
    104 C33         4.0220   -1.5190   -0.9590 c         1 MOL      0.507480
    105 O16         4.3510   -1.2080    0.2040 o         1 MOL     -0.383772
    106 C34         1.8210   -0.9360   -2.2240 c3        1 MOL     -0.219783
    107 C35         0.4700   -1.4930   -2.5500 c         1 MOL      0.787458
    108 O17        -0.4570   -0.9510   -1.8880 o         1 MOL     -0.685140
    109 O18         0.2520   -2.0940   -3.6370 o         1 MOL     -0.685140
    110 H47         1.7900   -1.1850    0.5610 hn        1 MOL      0.163533
    111 H48         2.5140   -2.8470   -1.8050 h1        1 MOL      0.052103
    112 H49         2.3630   -0.9850   -3.1700 hc        1 MOL      0.048681
    113 H50         1.7330    0.0920   -1.8800 hc        1 MOL      0.048681
    114 N11         4.9800   -1.7120   -1.9240 n         1 MOL     -0.629290
    115 C36         6.4140   -1.5420   -1.6050 c3        1 MOL      0.239336
    116 C37         6.8750   -0.1680   -1.0470 c         1 MOL      0.381028
    117 O19         7.5810   -0.0610   -0.0280 o         1 MOL     -0.499841
    118 C38         7.2840   -1.9970   -2.7960 c3        1 MOL     -0.010526
    119 C39         8.8450   -2.0030   -2.5390 ca        1 MOL      0.115059
    120 C40         9.3320   -2.4870   -1.3050 ca        1 MOL     -0.274412
    121 C41         9.7430   -1.3390   -3.4090 ca        1 MOL     -0.274412
    122 C42        10.6650   -2.2800   -0.9120 ca        1 MOL      0.050064
    123 C43        11.1140   -1.2660   -3.0700 ca        1 MOL      0.050064
    124 C44        11.5840   -1.7230   -1.8530 ca        1 MOL     -0.285929
    125 H51         4.6860   -2.2520   -2.7210 hn        1 MOL      0.342154
    126 H52         6.5500   -2.2250   -0.7740 h1        1 MOL      0.050997
    127 H53         7.0960   -1.3970   -3.6780 hc        1 MOL      0.015095
    128 H54         7.0050   -3.0030   -3.1190 hc        1 MOL      0.015095
    129 H55         8.6870   -2.9570   -0.5800 ha        1 MOL      0.132248
    130 H56         9.3540   -0.9510   -4.3370 ha        1 MOL      0.132248
    131 H57        11.1360   -2.5270    0.0300 ha        1 MOL      0.073433
    132 H58        11.7960   -0.8020   -3.7790 ha        1 MOL      0.073433
    133 H59        12.5950   -1.6140   -1.4850 ha        1 MOL      0.142552
    134 N12         6.4350    0.9910   -1.5630 n         1 MOL     -0.077338
    135 C45         6.7810    2.2990   -1.0270 c3        1 MOL     -0.061659
    136 C46         5.9600    2.5790    0.2470 c         1 MOL      0.377375
    137 O20         6.4950    3.3530    1.0950 o         1 MOL     -0.531671
    138 C47         6.4000    3.2590   -2.1700 c3        1 MOL     -0.097538
    139 C48         5.3080    2.5830   -2.9480 c3        1 MOL     -0.015910
    140 C49         5.7080    1.0720   -2.7860 c3        1 MOL     -0.027978
    141 H60         7.8270    2.3280   -0.7150 h1        1 MOL      0.100547
    142 H61         6.1580    4.2540   -1.7970 hc        1 MOL      0.055293
    143 H62         7.2650    3.3980   -2.8200 hc        1 MOL      0.055293
    144 H63         4.3180    2.7670   -2.5300 hc        1 MOL      0.031072
    145 H64         5.3840    2.8800   -3.9940 hc        1 MOL      0.031072
    146 H65         4.8040    0.4630   -2.7240 h1        1 MOL      0.022921
    147 H66         6.3140    0.8410   -3.6640 h1        1 MOL      0.022921
    148 N13         4.8050    1.9780    0.5260 n         1 MOL     -0.214110
    149 C50         4.0970    2.0800    1.7810 c3        1 MOL     -0.092472
    150 C51         4.7410    1.2770    2.9250 c         1 MOL      0.502733
    151 O21         4.6060    1.6630    4.0390 o         1 MOL     -0.560817
    152 C52         2.7040    1.4550    1.5970 c3        1 MOL     -0.161787
    153 C53         1.9040    2.1980    0.4930 c3        1 MOL      0.144511
    154 C54         0.4630    1.5680    0.2940 c         1 MOL      0.390833
    155 O22         0.1670    0.5090    0.8840 o         1 MOL     -0.626747
    156 O23        -0.3260    2.0760   -0.5650 o         1 MOL     -0.626747
    157 H67         4.4060    1.3610   -0.1590 hn        1 MOL      0.296459
    158 H68         4.0980    3.1200    2.1400 h1        1 MOL      0.126531
    159 H69         2.1480    1.6380    2.5250 hc        1 MOL      0.081375
    160 H70         2.6560    0.3990    1.3210 hc        1 MOL      0.081375
    161 H71         2.5330    2.0530   -0.3800 hc        1 MOL     -0.022954
    162 H72         1.7700    3.2380    0.7810 hc        1 MOL     -0.022954
    163 N14         5.3680    0.1640    2.5910 n         1 MOL     -0.065348
    164 C55         6.2850   -0.5720    3.3660 c3        1 MOL     -0.138179
    165 H73         5.7440   -1.1550    4.1110 h1        1 MOL      0.053897
    166 H74         6.8510   -1.2430    2.7200 h1        1 MOL      0.053897
    167 H75         6.9700    0.1120    3.8670 h1        1 MOL      0.053897
    168 H76         5.0320   -0.2470    1.7340 hn        1 MOL      0.059718
    169 Ca1        -2.1450    0.0750   -0.3410 Ca        1 MOL      1.759273
    170 O24        -3.8900   -0.7010    1.6670 oh        1 MOL     -0.789029
    171 H77        -4.6830   -0.2610    1.9730 ho        1 MOL      0.388661
    172 H78        -3.2490   -0.5530    2.3570 ho        1 MOL      0.388661
    173 O25        -1.8760    0.3580    2.8330 oh        1 MOL     -0.789029
    174 H79        -0.9750    0.4570    2.5350 ho        1 MOL      0.388661
    175 H80        -1.8660    0.6720    3.7440 ho        1 MOL      0.388661
@<TRIPOS>BOND
     1    1    2 1   
     2    1    4 1   
     3    1    5 1   
     4    1    6 1   
     5    2    3 2   
     6    2    7 1   
     7    7    8 1   
     8    7   15 1   
     9    8    9 1   
    10    8   11 1   
    11    8   16 1   
    12    9   10 2   
    13    9   19 1   
    14   11   12 1   
    15   11   17 1   
    16   11   18 1   
    17   12   13 1   
    18   12   14 1   
    19   19   20 1   
    20   19   24 1   
    21   20   21 1   
    22   20   23 1   
    23   20   25 1   
    24   21   22 2   
    25   21   29 1   
    26   23   26 1   
    27   23   27 1   
    28   23   28 1   
    29   29   30 1   
    30   29   37 1   
    31   30   31 1   
    32   30   33 1   
    33   30   38 1   
    34   31   32 2   
    35   31   41 1   
    36   33   34 1   
    37   33   39 1   
    38   33   40 1   
    39   34   35 1   
    40   34   36 1   
    41   41   42 1   
    42   41   45 1   
    43   42   43 1   
    44   42   46 1   
    45   42   47 1   
    46   43   44 2   
    47   43   48 1   
    48   48   49 1   
    49   48   56 1   
    50   49   50 1   
    51   49   52 1   
    52   49   57 1   
    53   50   51 2   
    54   50   62 1   
    55   52   53 1   
    56   52   58 1   
    57   52   59 1   
    58   53   54 1   
    59   53   55 2   
    60   54   60 1   
    61   54   61 1   
    62   62   63 1   
    63   62   66 1   
    64   63   64 1   
    65   63   67 1   
    66   63   68 1   
    67   64   65 2   
    68   64   69 1   
    69   69   70 1   
    70   69   76 1   
    71   70   71 1   
    72   70   73 1   
    73   70   77 1   
    74   71   72 2   
    75   71   83 1   
    76   73   74 1   
    77   73   75 1   
    78   73   78 1   
    79   74   80 1   
    80   74   81 1   
    81   74   82 1   
    82   75   79 1   
    83   83   84 1   
    84   83   91 1   
    85   84   85 1   
    86   84   87 1   
    87   84   92 1   
    88   85   86 2   
    89   85  102 1   
    90   87   88 1   
    91   87   89 1   
    92   87   93 1   
    93   88   90 1   
    94   88   94 1   
    95   88   95 1   
    96   89   96 1   
    97   89   97 1   
    98   89   98 1   
    99   90   99 1   
   100   90  100 1   
   101   90  101 1   
   102  102  103 1   
   103  102  110 1   
   104  103  104 1   
   105  103  106 1   
   106  103  111 1   
   107  104  105 2   
   108  104  114 1   
   109  106  107 1   
   110  106  112 1   
   111  106  113 1   
   112  107  108 1   
   113  107  109 1   
   114  114  115 1   
   115  114  125 1   
   116  115  116 1   
   117  115  118 1   
   118  115  126 1   
   119  116  117 2   
   120  116  134 1   
   121  118  119 1   
   122  118  127 1   
   123  118  128 1   
   124  119  120 ar  
   125  119  121 ar  
   126  120  122 ar  
   127  120  129 1   
   128  121  123 ar  
   129  121  130 1   
   130  122  124 ar  
   131  122  131 1   
   132  123  124 ar  
   133  123  132 1   
   134  124  133 1   
   135  134  135 1   
   136  134  140 1   
   137  135  136 1   
   138  135  138 1   
   139  135  141 1   
   140  136  137 2   
   141  136  148 1   
   142  138  139 1   
   143  138  142 1   
   144  138  143 1   
   145  139  140 1   
   146  139  144 1   
   147  139  145 1   
   148  140  146 1   
   149  140  147 1   
   150  148  149 1   
   151  148  157 1   
   152  149  150 1   
   153  149  152 1   
   154  149  158 1   
   155  150  151 2   
   156  150  163 1   
   157  152  153 1   
   158  152  159 1   
   159  152  160 1   
   160  153  154 1   
   161  153  161 1   
   162  153  162 1   
   163  154  155 1   
   164  154  156 1   
   165  163  164 1   
   166  163  168 1   
   167  164  165 1   
   168  164  166 1   
   169  164  167 1   
   170  170  171 1   
   171  170  172 1   
   172  173  174 1   
   173  173  175 1   
@<TRIPOS>SUBSTRUCTURE
     1 MOL         1 TEMP              0 ****  ****    0 ROOT
