@<TRIPOS>MOLECULE
MOL
  179   176     1     0     0
SMALL
resp


@<TRIPOS>ATOM
      1 C1          3.0110    3.0010    3.9670 c3        1 MOL     -0.175772
      2 C2          2.0120    2.7850    2.7980 c         1 MOL      0.641133
      3 O1          2.4940    2.5270    1.6860 o         1 MOL     -0.552711
      4 H1          3.3410    4.0390    3.9750 hc        1 MOL      0.042877
      5 H2          2.5210    2.7700    4.9120 hc        1 MOL      0.042877
      6 H3          3.8720    2.3460    3.8340 hc        1 MOL      0.042877
      7 N1          0.6940    2.8790    3.0090 n         1 MOL     -0.729004
      8 C3         -0.3060    2.7450    1.9060 c3        1 MOL      0.187747
      9 C4         -0.5540    4.0840    1.2450 c         1 MOL      0.659664
     10 O2         -1.6360    4.5590    1.3550 o         1 MOL     -0.459324
     11 C5         -1.4980    1.9500    2.4970 c3        1 MOL     -0.209134
     12 C6         -2.6210    1.7170    1.4990 c         1 MOL      0.582642
     13 O3         -3.7770    1.8670    1.8950 o         1 MOL     -0.636574
     14 O4         -2.4320    1.4020    0.2910 o         1 MOL     -0.636574
     15 H4          0.3470    3.1630    3.9080 hn        1 MOL      0.366765
     16 H5          0.1560    2.1200    1.1430 h1        1 MOL      0.097886
     17 H6         -1.9270    2.5970    3.2730 hc        1 MOL      0.052995
     18 H7         -1.0590    1.0110    2.8350 hc        1 MOL      0.052995
     19 N2          0.4480    4.6960    0.6020 n         1 MOL     -0.680004
     20 C7          0.3410    6.0890    0.1420 c3        1 MOL      0.106807
     21 C8         -0.5930    6.1680   -1.0750 c         1 MOL      0.353073
     22 O5         -1.0500    7.2870   -1.3090 o         1 MOL     -0.532466
     23 C9          1.6190    6.7920   -0.1420 c3        1 MOL      0.050574
     24 C10         2.5970    6.9310    1.0750 c3        1 MOL      0.023805
     25 C11         3.7560    7.7670    0.6680 c3        1 MOL     -0.030275
     26 C12         4.9310    7.8570    1.7040 c3        1 MOL     -0.053894
     27 N3          5.6730    6.6120    1.8910 n4        1 MOL     -0.468689
     28 H8          1.1960    4.1160    0.2550 hn        1 MOL      0.373707
     29 H9         -0.1960    6.6530    0.9060 h1        1 MOL      0.095102
     30 H10         1.3400    7.8060   -0.4440 hc        1 MOL      0.012834
     31 H11         2.1100    6.3540   -1.0020 hc        1 MOL      0.012834
     32 H12         2.9740    5.9550    1.3960 hc        1 MOL     -0.001703
     33 H13         2.0450    7.4470    1.8570 hc        1 MOL     -0.001703
     34 H14         3.5220    8.8200    0.5470 hc        1 MOL      0.045885
     35 H15         4.1550    7.3360   -0.2520 hc        1 MOL      0.045885
     36 H16         4.4910    8.1630    2.6550 hx        1 MOL      0.117054
     37 H17         5.4910    8.7420    1.3960 hx        1 MOL      0.117054
     38 H18         6.5660    6.8310    2.3230 hn        1 MOL      0.368535
     39 H19         5.1490    5.8900    2.3500 hn        1 MOL      0.368535
     40 H20         5.8700    6.2400    0.9720 hn        1 MOL      0.368535
     41 N4         -0.9730    5.1060   -1.7560 n         1 MOL     -0.164647
     42 C13        -2.0800    5.0340   -2.7120 c3        1 MOL     -0.065156
     43 C14        -3.5210    4.9520   -2.1010 c         1 MOL      0.430405
     44 O6         -4.5210    5.0830   -2.7460 o         1 MOL     -0.519003
     45 C15        -1.8370    3.7720   -3.6240 c3        1 MOL     -0.179368
     46 C16        -1.6580    2.5140   -2.8090 c         1 MOL      0.608699
     47 O7         -0.6470    2.3040   -2.0860 o         1 MOL     -0.687731
     48 O8         -2.4820    1.5410   -2.9430 o         1 MOL     -0.687731
     49 H21        -0.5890    4.2040   -1.5380 hn        1 MOL      0.156103
     50 H22        -2.0130    5.8890   -3.3770 h1        1 MOL      0.107148
     51 H23        -0.9170    4.0280   -4.1490 hc        1 MOL      0.078218
     52 H24        -2.6040    3.6460   -4.3820 hc        1 MOL      0.078218
     53 N5         -3.5900    4.6030   -0.8220 n         1 MOL     -0.036945
     54 C17        -4.8710    4.3770   -0.1040 c3        1 MOL     -0.173934
     55 C18        -5.8040    3.2530   -0.6010 c         1 MOL      0.485002
     56 O9         -7.0290    3.4400   -0.5040 o         1 MOL     -0.562765
     57 H25        -2.7330    4.3280   -0.3490 hn        1 MOL     -0.012347
     58 H26        -5.3840    5.3270   -0.2310 h1        1 MOL      0.105028
     59 H27        -4.6910    4.3520    0.9730 h1        1 MOL      0.105028
     60 N6         -5.2260    2.1790   -1.1360 n         1 MOL     -0.164353
     61 C19        -6.1000    0.9780   -1.3730 c3        1 MOL     -0.095518
     62 C20        -6.3860   -0.0170   -0.2380 c         1 MOL      0.426831
     63 O10        -7.0340   -0.9930   -0.4510 o         1 MOL     -0.509838
     64 C21        -5.6200    0.2730   -2.7320 c3        1 MOL     -0.218794
     65 C22        -4.6830   -0.8480   -2.4190 c         1 MOL      0.656951
     66 N7         -4.9970   -1.9790   -2.9170 n         1 MOL     -0.815338
     67 O11        -3.7750   -0.7120   -1.6140 o         1 MOL     -0.574309
     68 H28        -4.2160    2.1460   -1.1990 hn        1 MOL      0.231350
     69 H29        -7.1210    1.2940   -1.5700 h1        1 MOL      0.123212
     70 H30        -5.1510    1.1140   -3.2460 hc        1 MOL      0.089654
     71 H31        -6.4480   -0.1580   -3.2790 hc        1 MOL      0.089654
     72 H32        -5.8310   -2.2170   -3.4480 hn        1 MOL      0.385584
     73 H33        -4.3850   -2.7010   -2.5650 hn        1 MOL      0.385584
     74 N8         -5.8960    0.2410    0.9490 n         1 MOL     -0.233622
     75 C23        -6.2310   -0.5920    2.1270 c3        1 MOL     -0.184394
     76 C24        -5.2180   -1.7140    2.4200 c         1 MOL      0.598095
     77 O12        -5.3490   -2.3430    3.4510 o         1 MOL     -0.583692
     78 H34        -5.2860    1.0190    1.1390 hn        1 MOL      0.244683
     79 H35        -7.2380   -0.9870    2.0430 h1        1 MOL      0.115070
     80 H36        -6.2480    0.0250    3.0310 h1        1 MOL      0.115070
     81 N9         -4.2070   -1.9550    1.5560 n         1 MOL     -0.401991
     82 C25        -3.2090   -2.9880    1.7300 c3        1 MOL      0.173386
     83 C26        -1.8250   -2.4530    1.5360 c         1 MOL      0.502717
     84 O13        -1.5950   -1.6360    0.6360 o         1 MOL     -0.592272
     85 C27        -3.4580   -4.1380    0.7590 c3        1 MOL      0.212302
     86 C28        -4.8750   -4.7130    0.6310 ca        1 MOL     -0.169624
     87 C29        -5.5440   -4.8640   -0.6270 ca        1 MOL     -0.103447
     88 C30        -5.4580   -5.2870    1.7850 ca        1 MOL     -0.103447
     89 C31        -6.6950   -5.5890   -0.7130 ca        1 MOL     -0.144553
     90 C32        -6.7190   -5.9310    1.6950 ca        1 MOL     -0.144553
     91 C33        -7.2890   -6.1750    0.4250 ca        1 MOL      0.194172
     92 O14        -8.4590   -6.8280    0.3190 oh        1 MOL     -0.456914
     93 H37        -4.1640   -1.3830    0.7250 hn        1 MOL      0.269429
     94 H38        -3.3050   -3.3860    2.7440 h1        1 MOL      0.030064
     95 H39        -2.7610   -4.8990    1.1240 hc        1 MOL     -0.048123
     96 H40        -3.0620   -3.8890   -0.2280 hc        1 MOL     -0.048123
     97 H41        -5.0920   -4.5210   -1.5490 ha        1 MOL      0.098538
     98 H42        -4.8290   -5.3860    2.6580 ha        1 MOL      0.098538
     99 H43        -7.1420   -5.6690   -1.6920 ha        1 MOL      0.118643
    100 H44        -7.1190   -6.3960    2.5800 ha        1 MOL      0.118643
    101 H45        -8.7440   -7.1250    1.1820 ho        1 MOL      0.369649
    102 N10        -0.8110   -3.0680    2.2160 n         1 MOL     -0.515072
    103 C34         0.5980   -2.6360    1.9940 c3        1 MOL      0.017437
    104 C35         1.2860   -3.8620    1.2690 c         1 MOL      0.534211
    105 O15         1.0760   -4.9460    1.7600 o         1 MOL     -0.560640
    106 C36         1.2620   -2.2190    3.3560 c3        1 MOL      0.350648
    107 C37         0.5420   -1.0010    3.9960 c3        1 MOL      0.269731
    108 C38         2.8060   -1.9690    3.1670 c3        1 MOL     -0.646704
    109 C39         0.8750   -0.8910    5.5180 c3        1 MOL     -0.415530
    110 H46        -1.0430   -3.7670    2.9140 hn        1 MOL      0.299224
    111 H47         0.5590   -1.7420    1.3700 h1        1 MOL      0.021526
    112 H48         1.1860   -3.0490    4.0570 hc        1 MOL     -0.052483
    113 H49        -0.5130   -1.2710    3.9200 hc        1 MOL     -0.041515
    114 H50         0.8710   -0.1300    3.4240 hc        1 MOL     -0.041515
    115 H51         3.3020   -1.8710    4.1350 hc        1 MOL      0.138041
    116 H52         3.1860   -2.6910    2.4410 hc        1 MOL      0.138041
    117 H53         2.8630   -0.9650    2.7560 hc        1 MOL      0.138041
    118 H54         1.9690   -0.8730    5.5270 hc        1 MOL      0.094136
    119 H55         0.4400    0.0060    5.9690 hc        1 MOL      0.094136
    120 H56         0.5060   -1.7640    6.0550 hc        1 MOL      0.094136
    121 N11         2.0220   -3.6230    0.2070 n         1 MOL     -0.202048
    122 C40         2.7720   -4.4720   -0.6390 c3        1 MOL     -0.071115
    123 C41         4.2550   -4.1620   -0.6510 c         1 MOL      0.495245
    124 O16         4.6590   -3.0900   -0.2580 o         1 MOL     -0.415548
    125 C42         2.1480   -4.5400   -1.9870 c3        1 MOL     -0.206274
    126 O17         2.1820   -3.3790   -2.7530 oh        1 MOL     -0.510847
    127 H57         2.2410   -2.6340    0.0910 hn        1 MOL      0.323270
    128 H58         2.6770   -5.4650   -0.1940 h1        1 MOL      0.059598
    129 H59         1.0970   -4.8310   -1.9540 h1        1 MOL      0.129392
    130 H60         2.7330   -5.1750   -2.6590 h1        1 MOL      0.129392
    131 H61         1.6390   -2.7580   -2.2600 ho        1 MOL      0.352101
    132 N12         5.1380   -5.0540   -1.1180 n         1 MOL     -0.389226
    133 C43         6.5790   -5.0110   -0.7760 c3        1 MOL      0.044266
    134 C44         7.2860   -3.7190   -1.0410 c         1 MOL      0.590644
    135 O18         7.8510   -3.0770   -0.1800 o         1 MOL     -0.544538
    136 C45         7.2270   -6.2730   -1.3920 c3        1 MOL     -0.424454
    137 H62         4.7910   -5.9170   -1.5080 hn        1 MOL      0.281736
    138 H63         6.6550   -5.0090    0.3080 h1        1 MOL      0.075023
    139 H64         7.1090   -6.3830   -2.4730 hc        1 MOL      0.133567
    140 H65         8.3000   -6.1660   -1.2510 hc        1 MOL      0.133567
    141 H66         6.8170   -7.1830   -0.9440 hc        1 MOL      0.133567
    142 N13         7.1030   -3.1810   -2.2700 n         1 MOL     -0.478722
    143 C46         7.6690   -1.8890   -2.7110 c3        1 MOL      0.054014
    144 C47         7.2060   -0.6710   -1.8790 c         1 MOL      0.370351
    145 O19         7.8740    0.3430   -1.9470 o         1 MOL     -0.539750
    146 C48         7.3490   -1.6820   -4.1760 c3        1 MOL     -0.278968
    147 H67         6.4900   -3.6420   -2.9190 hn        1 MOL      0.291326
    148 H68         8.7510   -1.9450   -2.6320 h1        1 MOL      0.109931
    149 H69         7.6480   -0.6920   -4.5220 hc        1 MOL      0.086506
    150 H70         7.7910   -2.3930   -4.8680 hc        1 MOL      0.086506
    151 H71         6.2730   -1.8270   -4.2650 hc        1 MOL      0.086506
    152 N14         6.1950   -0.7740   -1.0560 n         1 MOL      0.040232
    153 C49         5.5830    0.2570   -0.1760 c3        1 MOL     -0.405608
    154 C50         6.3080    0.2570    1.1600 c         1 MOL      0.649810
    155 O20         6.6880    1.3500    1.6380 o         1 MOL     -0.588390
    156 C51         4.1030    0.0400   -0.0110 c3        1 MOL      0.556422
    157 C52         3.3000   -0.2730   -1.3430 c3        1 MOL     -0.084168
    158 C53         1.7930   -0.4540   -1.0010 c         1 MOL      0.766137
    159 O21         1.1050   -1.3660   -1.4750 o         1 MOL     -0.783426
    160 O22         1.1880    0.3830   -0.3160 o         1 MOL     -0.783426
    161 H72         5.8000   -1.6970   -0.9650 hn        1 MOL      0.128992
    162 H73         5.6830    1.2380   -0.6390 h1        1 MOL      0.135823
    163 H74         3.7460    0.9230    0.5060 hc        1 MOL     -0.139131
    164 H75         3.9840   -0.7950    0.6840 hc        1 MOL     -0.139131
    165 H76         3.5980   -1.2300   -1.7740 hc        1 MOL     -0.052287
    166 H77         3.5780    0.5050   -2.0520 hc        1 MOL     -0.052287
    167 N15         6.6350   -0.9400    1.7960 n         1 MOL     -0.312658
    168 C54         7.6710   -0.9870    2.8280 c3        1 MOL     -0.314720
    169 H78         7.8450    0.0170    3.2140 h1        1 MOL      0.129747
    170 H79         7.3460   -1.6370    3.6410 h1        1 MOL      0.129747
    171 H80         8.5940   -1.3770    2.3990 h1        1 MOL      0.129747
    172 H81         6.3640   -1.7750    1.3050 hn        1 MOL      0.254475
    173 Ca1        -1.2360   -0.1400   -1.3460 Ca        1 MOL      1.694538
    174 O23        -0.0540   -0.1610   -3.8240 oh        1 MOL     -0.761404
    175 H82         0.4740    0.6320   -3.7350 ho        1 MOL      0.389880
    176 H83         0.4860   -0.7410   -4.3620 ho        1 MOL      0.389880
    177 O24        -1.5250   -2.5290   -2.5510 oh        1 MOL     -0.761404
    178 H84        -1.3940   -2.5600   -3.5020 ho        1 MOL      0.389880
    179 H85        -1.4790   -3.4480   -2.2840 ho        1 MOL      0.389880
@<TRIPOS>BOND
     1    1    2 1   
     2    1    4 1   
     3    1    5 1   
     4    1    6 1   
     5    2    3 2   
     6    2    7 1   
     7    7    8 1   
     8    7   15 1   
     9    8    9 1   
    10    8   11 1   
    11    8   16 1   
    12    9   10 2   
    13    9   19 1   
    14   11   12 1   
    15   11   17 1   
    16   11   18 1   
    17   12   13 1   
    18   12   14 1   
    19   19   20 1   
    20   19   28 1   
    21   20   21 1   
    22   20   23 1   
    23   20   29 1   
    24   21   22 2   
    25   21   41 1   
    26   23   24 1   
    27   23   30 1   
    28   23   31 1   
    29   24   25 1   
    30   24   32 1   
    31   24   33 1   
    32   25   26 1   
    33   25   34 1   
    34   25   35 1   
    35   26   27 1   
    36   26   36 1   
    37   26   37 1   
    38   27   38 1   
    39   27   39 1   
    40   27   40 1   
    41   41   42 1   
    42   41   49 1   
    43   42   43 1   
    44   42   45 1   
    45   42   50 1   
    46   43   44 2   
    47   43   53 1   
    48   45   46 1   
    49   45   51 1   
    50   45   52 1   
    51   46   47 1   
    52   46   48 1   
    53   53   54 1   
    54   53   57 1   
    55   54   55 1   
    56   54   58 1   
    57   54   59 1   
    58   55   56 2   
    59   55   60 1   
    60   60   61 1   
    61   60   68 1   
    62   61   62 1   
    63   61   64 1   
    64   61   69 1   
    65   62   63 2   
    66   62   74 1   
    67   64   65 1   
    68   64   70 1   
    69   64   71 1   
    70   65   66 1   
    71   65   67 2   
    72   66   72 1   
    73   66   73 1   
    74   74   75 1   
    75   74   78 1   
    76   75   76 1   
    77   75   79 1   
    78   75   80 1   
    79   76   77 2   
    80   76   81 1   
    81   81   82 1   
    82   81   93 1   
    83   82   83 1   
    84   82   85 1   
    85   82   94 1   
    86   83   84 2   
    87   83  102 1   
    88   85   86 1   
    89   85   95 1   
    90   85   96 1   
    91   86   87 ar  
    92   86   88 ar  
    93   87   89 ar  
    94   87   97 1   
    95   88   90 ar  
    96   88   98 1   
    97   89   91 ar  
    98   89   99 1   
    99   90   91 ar  
   100   90  100 1   
   101   91   92 1   
   102   92  101 1   
   103  102  103 1   
   104  102  110 1   
   105  103  104 1   
   106  103  106 1   
   107  103  111 1   
   108  104  105 2   
   109  104  121 1   
   110  106  107 1   
   111  106  108 1   
   112  106  112 1   
   113  107  109 1   
   114  107  113 1   
   115  107  114 1   
   116  108  115 1   
   117  108  116 1   
   118  108  117 1   
   119  109  118 1   
   120  109  119 1   
   121  109  120 1   
   122  121  122 1   
   123  121  127 1   
   124  122  123 1   
   125  122  125 1   
   126  122  128 1   
   127  123  124 2   
   128  123  132 1   
   129  125  126 1   
   130  125  129 1   
   131  125  130 1   
   132  126  131 1   
   133  132  133 1   
   134  132  137 1   
   135  133  134 1   
   136  133  136 1   
   137  133  138 1   
   138  134  135 2   
   139  134  142 1   
   140  136  139 1   
   141  136  140 1   
   142  136  141 1   
   143  142  143 1   
   144  142  147 1   
   145  143  144 1   
   146  143  146 1   
   147  143  148 1   
   148  144  145 2   
   149  144  152 1   
   150  146  149 1   
   151  146  150 1   
   152  146  151 1   
   153  152  153 1   
   154  152  161 1   
   155  153  154 1   
   156  153  156 1   
   157  153  162 1   
   158  154  155 2   
   159  154  167 1   
   160  156  157 1   
   161  156  163 1   
   162  156  164 1   
   163  157  158 1   
   164  157  165 1   
   165  157  166 1   
   166  158  159 1   
   167  158  160 1   
   168  167  168 1   
   169  167  172 1   
   170  168  169 1   
   171  168  170 1   
   172  168  171 1   
   173  174  175 1   
   174  174  176 1   
   175  177  178 1   
   176  177  179 1   
@<TRIPOS>SUBSTRUCTURE
     1 MOL         1 TEMP              0 ****  ****    0 ROOT
