@<TRIPOS>MOLECULE
MOL
  189   185     1     0     0
SMALL
resp


@<TRIPOS>ATOM
      1 C1          0.7220    4.5960   -5.0710 c3        1 MOL     -0.341180
      2 C2          0.7150    3.5640   -3.9400 c         1 MOL      0.794378
      3 O1         -0.2550    3.5700   -3.1380 o         1 MOL     -0.655930
      4 H1          1.6930    4.5870   -5.5650 hc        1 MOL      0.086862
      5 H2         -0.0550    4.3480   -5.7940 hc        1 MOL      0.086862
      6 H3          0.5320    5.5880   -4.6600 hc        1 MOL      0.086862
      7 N1          1.8620    2.9070   -3.6220 n         1 MOL     -0.662150
      8 C3          2.1450    2.3740   -2.2270 c3        1 MOL      0.218087
      9 C4          2.5100    3.5150   -1.3030 c         1 MOL      0.333832
     10 O2          3.4010    4.3770   -1.5790 o         1 MOL     -0.558264
     11 C5          3.1980    1.2160   -2.1950 c3        1 MOL     -0.101905
     12 C6          3.8010    0.9110   -0.8710 c         1 MOL      0.655564
     13 O3          3.0460    0.8170    0.1540 o         1 MOL     -0.545105
     14 O4          5.0130    0.5970   -0.8510 o         1 MOL     -0.545105
     15 H4          2.6530    3.0630   -4.2360 hn        1 MOL      0.339993
     16 H5          1.2120    1.9790   -1.8310 h1        1 MOL     -0.030870
     17 H6          4.0650    1.5630   -2.7540 hc        1 MOL      0.008913
     18 H7          2.8060    0.3010   -2.6300 hc        1 MOL      0.008913
     19 N2          1.9050    3.4840   -0.1000 n         1 MOL     -0.028505
     20 C7          1.9820    4.5830    0.9550 c3        1 MOL     -0.076135
     21 C8          2.7440    4.0560    2.1880 c         1 MOL      0.507414
     22 O5          3.0280    4.8460    3.0850 o         1 MOL     -0.577647
     23 C9          0.5540    5.1200    1.3240 c3        1 MOL      0.016660
     24 C10        -0.1600    5.7520    0.0880 c3        1 MOL      0.139426
     25 C11         0.5810    7.0760   -0.2710 c3        1 MOL     -0.256280
     26 C12        -0.0510    7.7470   -1.5010 c3        1 MOL      0.103272
     27 N3         -1.5250    7.8940   -1.4930 n4        1 MOL     -0.452757
     28 H8          1.1820    2.7970   -0.0150 hn        1 MOL      0.225671
     29 H9          2.6530    5.3640    0.5860 h1        1 MOL      0.092101
     30 H10         0.5770    5.8220    2.1610 hc        1 MOL      0.010814
     31 H11        -0.0520    4.2630    1.6150 hc        1 MOL      0.010814
     32 H12        -1.2140    5.9500    0.2920 hc        1 MOL     -0.028845
     33 H13        -0.1420    5.0470   -0.7450 hc        1 MOL     -0.028845
     34 H14         1.6230    6.8530   -0.4920 hc        1 MOL      0.092492
     35 H15         0.6190    7.7670    0.5770 hc        1 MOL      0.092492
     36 H16         0.2830    7.2560   -2.4070 hx        1 MOL      0.076379
     37 H17         0.3000    8.7730   -1.6670 hx        1 MOL      0.076379
     38 H18        -1.8280    7.9310   -0.5270 hn        1 MOL      0.351301
     39 H19        -1.7640    8.7630   -1.9500 hn        1 MOL      0.351301
     40 H20        -1.9700    7.1000   -1.9340 hn        1 MOL      0.351301
     41 N4          3.2440    2.8490    2.1730 n         1 MOL     -0.102691
     42 C13         4.0090    2.1910    3.2690 c3        1 MOL     -0.236073
     43 C14         5.4470    1.9640    2.9090 c         1 MOL      0.596921
     44 O6          6.2030    1.8610    3.8770 o         1 MOL     -0.535621
     45 C15         3.3980    0.8500    3.6470 c3        1 MOL     -0.064541
     46 C16         1.9230    0.8600    4.0200 c         1 MOL      0.712441
     47 O7          1.4910    1.0790    5.1270 o         1 MOL     -0.709275
     48 O8          1.1800    0.2970    3.1870 o         1 MOL     -0.709275
     49 H21         2.9740    2.2740    1.3890 hn        1 MOL     -0.101756
     50 H22         4.0110    2.7930    4.1730 h1        1 MOL      0.141786
     51 H23         3.8220    0.3300    4.5080 hc        1 MOL      0.060895
     52 H24         3.5440    0.2270    2.7650 hc        1 MOL      0.060895
     53 N5          5.8510    1.8650    1.6180 n         1 MOL     -0.427747
     54 C17         7.2030    1.3250    1.2070 c3        1 MOL     -0.098976
     55 C18         7.3130   -0.1020    1.6690 c         1 MOL      0.435643
     56 O9          8.4310   -0.5230    2.0370 o         1 MOL     -0.539999
     57 H25         5.1380    1.7670    0.9090 hn        1 MOL      0.259217
     58 H26         7.9620    1.9340    1.6930 h1        1 MOL      0.107640
     59 H27         7.3300    1.3520    0.1230 h1        1 MOL      0.107640
     60 N6          6.2580   -0.9200    1.4720 n         1 MOL     -0.073092
     61 C19         6.4540   -2.3460    1.3130 c3        1 MOL      0.063981
     62 C20         6.6170   -2.7420   -0.1560 c         1 MOL      0.360144
     63 O10         7.1200   -3.7770   -0.5140 o         1 MOL     -0.534453
     64 C21         5.3980   -3.1480    2.0790 c3        1 MOL     -0.376266
     65 C22         4.0000   -2.6110    1.7190 c         1 MOL      0.778395
     66 O11         3.5950   -2.3320    0.5490 o         1 MOL     -0.736061
     67 O12         3.2710   -2.3570    2.6480 o         1 MOL     -0.736061
     68 H28         5.3460   -0.5970    1.2000 hn        1 MOL     -0.000504
     69 H29         7.4120   -2.5900    1.7710 h1        1 MOL      0.096477
     70 H30         5.5900   -2.9120    3.1290 hc        1 MOL      0.110471
     71 H31         5.3940   -4.1920    1.7880 hc        1 MOL      0.110471
     72 N7          6.2630   -1.8480   -1.0950 n         1 MOL     -0.091531
     73 C23         6.2220   -2.0570   -2.5810 c3        1 MOL     -0.136206
     74 C24         5.1200   -3.0330   -3.0010 c         1 MOL      0.483529
     75 O13         5.1830   -3.7770   -3.9620 o         1 MOL     -0.555157
     76 H32         5.9420   -0.9490   -0.7560 hn        1 MOL      0.090241
     77 H33         7.2180   -2.3450   -2.8930 h1        1 MOL      0.087380
     78 H34         6.0550   -1.0240   -2.9170 h1        1 MOL      0.087380
     79 N8          4.0070   -3.0410   -2.2720 n         1 MOL     -0.170312
     80 C25         2.7170   -3.6610   -2.5660 c3        1 MOL     -0.045580
     81 C26         1.5400   -2.7650   -2.2420 c         1 MOL      0.597113
     82 O14         1.6560   -1.8660   -1.4110 o         1 MOL     -0.594528
     83 C27         2.6050   -4.9880   -1.8040 c3        1 MOL      0.302178
     84 C28         3.4810   -6.0760   -2.5040 c3        1 MOL     -0.456040
     85 O15         2.9790   -4.8840   -0.4740 oh        1 MOL     -0.566165
     86 H35         4.0520   -2.6030   -1.3630 hn        1 MOL      0.164673
     87 H36         2.6110   -3.8280   -3.6370 h1        1 MOL      0.067889
     88 H37         1.5730   -5.3270   -1.8350 h1        1 MOL      0.039434
     89 H38         3.9340   -4.9470   -0.4920 ho        1 MOL      0.403304
     90 H39         3.4790   -5.8680   -3.5710 hc        1 MOL      0.126975
     91 H40         4.4940   -5.9640   -2.1200 hc        1 MOL      0.126975
     92 H41         3.1100   -7.0790   -2.2770 hc        1 MOL      0.126975
     93 N9          0.3620   -2.9930   -2.8370 n         1 MOL     -0.582783
     94 C29        -0.7950   -2.1470   -2.6030 c3        1 MOL      0.073901
     95 C30        -1.8950   -2.9970   -1.9570 c         1 MOL      0.562455
     96 O16        -2.1930   -4.1170   -2.3750 o         1 MOL     -0.558329
     97 C31        -1.2680   -1.3970   -3.8350 c3        1 MOL      0.082990
     98 C32        -0.4020   -0.0520   -3.9210 c3        1 MOL      0.173467
     99 C33        -2.7730   -1.0400   -4.0400 c3        1 MOL     -0.386895
    100 C34        -0.1880    0.4090   -5.3350 c3        1 MOL     -0.518455
    101 H42         0.2290   -3.7610   -3.4760 hn        1 MOL      0.310404
    102 H43        -0.5110   -1.3590   -1.9100 h1        1 MOL     -0.017975
    103 H44        -0.9600   -1.9700   -4.7190 hc        1 MOL      0.038070
    104 H45         0.5500   -0.3100   -3.4500 hc        1 MOL      0.067725
    105 H46        -0.9620    0.7170   -3.3950 hc        1 MOL      0.067725
    106 H47        -3.1400   -0.3360   -3.2960 hc        1 MOL      0.099942
    107 H48        -3.0210   -0.5990   -5.0030 hc        1 MOL      0.099942
    108 H49        -3.3040   -1.9940   -4.0140 hc        1 MOL      0.099942
    109 H50        -1.0670    0.8930   -5.7440 hc        1 MOL      0.112060
    110 H51         0.5000    1.2620   -5.3710 hc        1 MOL      0.112060
    111 H52        -0.0160   -0.4040   -6.0480 hc        1 MOL      0.112060
    112 N10        -2.5600   -2.3990   -0.9390 n         1 MOL     -0.170926
    113 C35        -3.7020   -2.9660   -0.2310 c3        1 MOL      0.032924
    114 C36        -4.9370   -2.1750   -0.6080 c         1 MOL      0.275888
    115 O17        -4.8350   -1.0540   -1.1610 o         1 MOL     -0.381368
    116 C37        -3.6570   -2.8950    1.3570 c3        1 MOL      0.125100
    117 C38        -2.6700   -3.9040    1.8680 c3        1 MOL     -0.090208
    118 O18        -3.2130   -1.6490    1.7840 oh        1 MOL     -0.435791
    119 H53        -2.3370   -1.4380   -0.7150 hn        1 MOL      0.084037
    120 H54        -3.8120   -3.9890   -0.5860 h1        1 MOL      0.066439
    121 H55        -4.5890   -3.1720    1.8630 h1        1 MOL      0.078756
    122 H56        -2.3900   -1.4580    1.3300 ho        1 MOL      0.260672
    123 H57        -3.0620   -4.8780    1.5430 hc        1 MOL      0.017829
    124 H58        -1.6920   -3.7350    1.4110 hc        1 MOL      0.017829
    125 H59        -2.7300   -3.9610    2.9550 hc        1 MOL      0.017829
    126 N11        -6.1200   -2.6410   -0.2180 n         1 MOL     -0.163853
    127 C39        -7.3550   -1.8340   -0.3760 c3        1 MOL     -0.238438
    128 C40        -7.3300   -0.4230    0.2710 c         1 MOL      0.439387
    129 O19        -7.8770    0.5590   -0.2880 o         1 MOL     -0.483507
    130 C41        -8.6450   -2.6700    0.1550 c3        1 MOL      0.360389
    131 C42        -8.7910   -3.9880   -0.5950 c3        1 MOL     -0.533797
    132 O20        -8.2730   -2.9350    1.4630 oh        1 MOL     -0.629060
    133 H60        -6.2720   -3.5970    0.0660 hn        1 MOL      0.219246
    134 H61        -7.4840   -1.5680   -1.4320 h1        1 MOL      0.166613
    135 H62        -9.4950   -1.9980    0.0230 h1        1 MOL      0.046492
    136 H63        -9.0260   -3.3510    1.8840 ho        1 MOL      0.414992
    137 H64        -8.0880   -4.7460   -0.2600 hc        1 MOL      0.154232
    138 H65        -9.7630   -4.3270   -0.2390 hc        1 MOL      0.154232
    139 H66        -8.8000   -3.7060   -1.6500 hc        1 MOL      0.154232
    140 N12        -6.6380   -0.2450    1.4260 n         1 MOL     -0.166723
    141 C43        -6.2920    1.0080    2.1190 c3        1 MOL     -0.160376
    142 C44        -5.4800    2.0170    1.2600 c         1 MOL      0.416104
    143 O21        -5.3260    3.2240    1.5390 o         1 MOL     -0.558743
    144 C45        -5.4970    0.7060    3.3610 c3        1 MOL      0.052840
    145 C46        -5.9670   -0.4890    4.1550 c3        1 MOL      0.165908
    146 C47        -5.3970   -0.6890    5.5430 c3        1 MOL     -0.250732
    147 C48        -3.8370   -0.6230    5.6520 c3        1 MOL     -0.037553
    148 N13        -3.0740   -1.6190    4.8200 n4        1 MOL     -0.446532
    149 H67        -6.3930   -1.1020    1.9140 hn        1 MOL      0.105136
    150 H68        -7.2240    1.5220    2.3970 h1        1 MOL      0.134172
    151 H69        -5.4640    1.6080    3.9810 hc        1 MOL      0.026170
    152 H70        -4.4850    0.4280    3.0810 hc        1 MOL      0.026170
    153 H71        -5.6600   -1.3880    3.6220 hc        1 MOL     -0.015928
    154 H72        -7.0630   -0.4970    4.1940 hc        1 MOL     -0.015928
    155 H73        -5.7100   -1.6510    5.9530 hc        1 MOL      0.098285
    156 H74        -5.7900    0.0840    6.2070 hc        1 MOL      0.098285
    157 H75        -3.5320   -0.6680    6.6940 hx        1 MOL      0.126192
    158 H76        -3.5910    0.3800    5.2970 hx        1 MOL      0.126192
    159 H77        -3.1670   -1.3290    3.8540 hn        1 MOL      0.348275
    160 H78        -2.0840   -1.5460    4.9650 hn        1 MOL      0.348275
    161 H79        -3.4940   -2.5340    4.8670 hn        1 MOL      0.348275
    162 N14        -5.0070    1.5650    0.1420 n         1 MOL     -0.025122
    163 C49        -4.2190    2.3080   -0.9200 c3        1 MOL     -0.067706
    164 C50        -4.8480    2.3530   -2.2720 c         1 MOL      0.366792
    165 O22        -4.4470    3.1050   -3.1850 o         1 MOL     -0.509316
    166 C51        -2.7770    1.6950   -0.9280 c3        1 MOL     -0.093522
    167 C52        -2.0420    1.7810    0.3850 c3        1 MOL      0.184121
    168 C53        -0.8160    0.8050    0.3730 c         1 MOL      0.369173
    169 O23         0.3170    1.1980    0.1890 o         1 MOL     -0.577246
    170 O24        -0.9680   -0.4330    0.5110 o         1 MOL     -0.577246
    171 H80        -4.9910    0.5550    0.0520 hn        1 MOL      0.037407
    172 H81        -4.1140    3.3150   -0.5220 h1        1 MOL      0.105337
    173 H82        -2.1720    2.1940   -1.6790 hc        1 MOL      0.101587
    174 H83        -2.7830    0.6540   -1.2490 hc        1 MOL      0.101587
    175 H84        -2.6950    1.5210    1.2250 hc        1 MOL     -0.051944
    176 H85        -1.7010    2.7870    0.6100 hc        1 MOL     -0.051944
    177 N15        -5.9160    1.5390   -2.5010 n         1 MOL     -0.178926
    178 C54        -6.2270    1.0950   -3.8660 c3        1 MOL     -0.145549
    179 H86        -5.3980    1.3470   -4.5270 h1        1 MOL      0.078295
    180 H87        -6.3810    0.0160   -3.8710 h1        1 MOL      0.078295
    181 H88        -7.1320    1.5930   -4.2130 h1        1 MOL      0.078295
    182 H89        -6.3750    1.0990   -1.7210 hn        1 MOL      0.146662
    183 Ca1         1.4090   -1.0490    1.0360 Ca        1 MOL      1.723194
    184 O25         0.9100   -3.5790    0.6560 oh        1 MOL     -0.833925
    185 H90         1.6530   -3.9890    0.2200 ho        1 MOL      0.390418
    186 H91         0.7260   -4.1470    1.3980 ho        1 MOL      0.390418
    187 O26        -0.0550   -2.1510    3.2240 oh        1 MOL     -0.833925
    188 H92        -0.0520   -1.8710    4.1440 ho        1 MOL      0.390418
    189 H93         0.2400   -3.0660    3.2580 ho        1 MOL      0.390418
@<TRIPOS>BOND
     1    1    2 1   
     2    1    4 1   
     3    1    5 1   
     4    1    6 1   
     5    2    3 2   
     6    2    7 1   
     7    7    8 1   
     8    7   15 1   
     9    8    9 1   
    10    8   11 1   
    11    8   16 1   
    12    9   10 2   
    13    9   19 1   
    14   11   12 1   
    15   11   17 1   
    16   11   18 1   
    17   12   13 1   
    18   12   14 1   
    19   19   20 1   
    20   19   28 1   
    21   20   21 1   
    22   20   23 1   
    23   20   29 1   
    24   21   22 2   
    25   21   41 1   
    26   23   24 1   
    27   23   30 1   
    28   23   31 1   
    29   24   25 1   
    30   24   32 1   
    31   24   33 1   
    32   25   26 1   
    33   25   34 1   
    34   25   35 1   
    35   26   27 1   
    36   26   36 1   
    37   26   37 1   
    38   27   38 1   
    39   27   39 1   
    40   27   40 1   
    41   41   42 1   
    42   41   49 1   
    43   42   43 1   
    44   42   45 1   
    45   42   50 1   
    46   43   44 2   
    47   43   53 1   
    48   45   46 1   
    49   45   51 1   
    50   45   52 1   
    51   46   47 1   
    52   46   48 1   
    53   53   54 1   
    54   53   57 1   
    55   54   55 1   
    56   54   58 1   
    57   54   59 1   
    58   55   56 2   
    59   55   60 1   
    60   60   61 1   
    61   60   68 1   
    62   61   62 1   
    63   61   64 1   
    64   61   69 1   
    65   62   63 2   
    66   62   72 1   
    67   64   65 1   
    68   64   70 1   
    69   64   71 1   
    70   65   66 1   
    71   65   67 1   
    72   72   73 1   
    73   72   76 1   
    74   73   74 1   
    75   73   77 1   
    76   73   78 1   
    77   74   75 2   
    78   74   79 1   
    79   79   80 1   
    80   79   86 1   
    81   80   81 1   
    82   80   83 1   
    83   80   87 1   
    84   81   82 2   
    85   81   93 1   
    86   83   84 1   
    87   83   85 1   
    88   83   88 1   
    89   84   90 1   
    90   84   91 1   
    91   84   92 1   
    92   85   89 1   
    93   93   94 1   
    94   93  101 1   
    95   94   95 1   
    96   94   97 1   
    97   94  102 1   
    98   95   96 2   
    99   95  112 1   
   100   97   98 1   
   101   97   99 1   
   102   97  103 1   
   103   98  100 1   
   104   98  104 1   
   105   98  105 1   
   106   99  106 1   
   107   99  107 1   
   108   99  108 1   
   109  100  109 1   
   110  100  110 1   
   111  100  111 1   
   112  112  113 1   
   113  112  119 1   
   114  113  114 1   
   115  113  116 1   
   116  113  120 1   
   117  114  115 2   
   118  114  126 1   
   119  116  117 1   
   120  116  118 1   
   121  116  121 1   
   122  117  123 1   
   123  117  124 1   
   124  117  125 1   
   125  118  122 1   
   126  126  127 1   
   127  126  133 1   
   128  127  128 1   
   129  127  130 1   
   130  127  134 1   
   131  128  129 2   
   132  128  140 1   
   133  130  131 1   
   134  130  132 1   
   135  130  135 1   
   136  131  137 1   
   137  131  138 1   
   138  131  139 1   
   139  132  136 1   
   140  140  141 1   
   141  140  149 1   
   142  141  142 1   
   143  141  144 1   
   144  141  150 1   
   145  142  143 2   
   146  142  162 1   
   147  144  145 1   
   148  144  151 1   
   149  144  152 1   
   150  145  146 1   
   151  145  153 1   
   152  145  154 1   
   153  146  147 1   
   154  146  155 1   
   155  146  156 1   
   156  147  148 1   
   157  147  157 1   
   158  147  158 1   
   159  148  159 1   
   160  148  160 1   
   161  148  161 1   
   162  162  163 1   
   163  162  171 1   
   164  163  164 1   
   165  163  166 1   
   166  163  172 1   
   167  164  165 2   
   168  164  177 1   
   169  166  167 1   
   170  166  173 1   
   171  166  174 1   
   172  167  168 1   
   173  167  175 1   
   174  167  176 1   
   175  168  169 1   
   176  168  170 1   
   177  177  178 1   
   178  177  182 1   
   179  178  179 1   
   180  178  180 1   
   181  178  181 1   
   182  184  185 1   
   183  184  186 1   
   184  187  188 1   
   185  187  189 1   
@<TRIPOS>SUBSTRUCTURE
     1 MOL         1 TEMP              0 ****  ****    0 ROOT
