@<TRIPOS>MOLECULE
MOL
  183   181     1     0     0
SMALL
resp


@<TRIPOS>ATOM
      1 C1         -1.1020    0.8370    6.6090 c3        1 MOL     -0.278421
      2 C2         -1.2730    1.0330    5.0880 c         1 MOL      0.806425
      3 O1         -0.3490    1.4820    4.4360 o         1 MOL     -0.595892
      4 H1         -1.2720    1.7860    7.1190 hc        1 MOL      0.058389
      5 H2         -1.8230    0.1010    6.9650 hc        1 MOL      0.058389
      6 H3         -0.0910    0.4900    6.8200 hc        1 MOL      0.058389
      7 N1         -2.4070    0.5380    4.5070 n         1 MOL     -0.822697
      8 C3         -2.8380    0.8130    3.1350 c3        1 MOL      0.643410
      9 C4         -3.0670    2.3200    2.9380 c         1 MOL      0.244166
     10 O2         -3.8860    2.9220    3.6480 o         1 MOL     -0.560979
     11 C5         -4.0640   -0.0660    2.8240 c3        1 MOL     -0.311921
     12 C6         -4.7690    0.1590    1.5150 c         1 MOL      0.801539
     13 O3         -5.9840    0.0320    1.4800 o         1 MOL     -0.657221
     14 O4         -4.1120    0.6170    0.5310 o         1 MOL     -0.657221
     15 H4         -3.0660    0.0350    5.0870 hn        1 MOL      0.343132
     16 H5         -2.1050    0.4010    2.4400 h1        1 MOL     -0.060917
     17 H6         -4.7680    0.2000    3.6110 hc        1 MOL      0.023168
     18 H7         -3.7030   -1.0710    3.0330 hc        1 MOL      0.023168
     19 N2         -2.5300    2.8990    1.8640 n         1 MOL     -0.138293
     20 C7         -2.8150    4.3320    1.4050 c3        1 MOL      0.081471
     21 C8         -3.8000    4.3980    0.1970 c         1 MOL      0.370305
     22 O5         -4.6420    5.3070    0.2810 o         1 MOL     -0.572516
     23 C9         -1.4450    4.9970    1.2210 c3        1 MOL      0.117613
     24 C10        -0.5290    4.9650    2.5790 c3        1 MOL      0.206025
     25 C11        -1.5760    6.5230    0.8100 c3        1 MOL     -0.263276
     26 C12         0.9630    5.4460    2.3080 c3        1 MOL     -0.230340
     27 H8         -1.9250    2.3310    1.2810 hn        1 MOL      0.081548
     28 H9         -3.2970    4.8140    2.2570 h1        1 MOL      0.043377
     29 H10        -0.9480    4.5340    0.3680 hc        1 MOL      0.064496
     30 H11        -0.4890    3.9020    2.8390 hc        1 MOL     -0.056968
     31 H12        -0.9320    5.5050    3.4270 hc        1 MOL     -0.056968
     32 H13        -0.6070    7.0170    0.8490 hc        1 MOL      0.046539
     33 H14        -1.8720    6.4990   -0.2440 hc        1 MOL      0.046539
     34 H15        -2.2590    6.9950    1.5160 hc        1 MOL      0.046539
     35 H16         1.6690    4.8760    2.9110 hc        1 MOL      0.043669
     36 H17         1.1320    5.4300    1.2290 hc        1 MOL      0.043669
     37 H18         0.8740    6.4950    2.5990 hc        1 MOL      0.043669
     38 N3         -3.8310    3.4450   -0.7210 n         1 MOL     -0.092211
     39 C13        -4.7810    3.4540   -1.8620 c3        1 MOL      0.010611
     40 C14        -6.2590    3.1040   -1.5880 c         1 MOL      0.292317
     41 O6         -7.1850    3.4780   -2.3880 o         1 MOL     -0.537087
     42 C15        -4.3240    2.7060   -3.0720 c3        1 MOL     -0.005344
     43 C16        -2.7940    2.6200   -3.2090 c         1 MOL      0.596332
     44 O7         -2.1910    3.3640   -4.0320 o         1 MOL     -0.650235
     45 O8         -2.1300    1.8900   -2.4070 o         1 MOL     -0.650235
     46 H19        -3.1270    2.7350   -0.5500 hn        1 MOL      0.041123
     47 H20        -4.9030    4.4930   -2.1660 h1        1 MOL      0.100695
     48 H21        -4.6010    3.2830   -3.9530 hc        1 MOL     -0.014621
     49 H22        -4.6980    1.6710   -3.0340 hc        1 MOL     -0.014621
     50 N4         -6.5170    2.5280   -0.4290 n         1 MOL     -0.045236
     51 C17        -7.7370    1.8840   -0.0630 c3        1 MOL     -0.500639
     52 C18        -8.0750    0.5400   -0.7930 c         1 MOL      0.649443
     53 O9         -9.2090    0.1000   -0.8650 o         1 MOL     -0.609535
     54 H23        -5.6900    2.2230    0.0520 hn        1 MOL      0.202690
     55 H24        -8.5470    2.5170   -0.3970 h1        1 MOL      0.180458
     56 H25        -7.7330    1.6660    1.0110 h1        1 MOL      0.180458
     57 N5         -7.0840   -0.1970   -1.3670 n         1 MOL     -0.246190
     58 C19        -7.2330   -1.4710   -2.0550 c3        1 MOL     -0.236963
     59 C20        -7.1690   -2.6930   -1.1070 c         1 MOL      0.495265
     60 O10        -7.3680   -3.8400   -1.4260 o         1 MOL     -0.551776
     61 C21        -6.1360   -1.5980   -3.1470 c3        1 MOL     -0.023387
     62 C22        -4.7320   -1.1640   -2.5720 c         1 MOL      0.560434
     63 O11        -3.8720   -0.6120   -3.2450 o         1 MOL     -0.682577
     64 O12        -4.4830   -1.4500   -1.3960 o         1 MOL     -0.682577
     65 H26        -6.1890    0.0440   -0.9600 hn        1 MOL      0.223126
     66 H27        -8.2000   -1.5160   -2.5660 h1        1 MOL      0.147339
     67 H28        -6.3040   -0.8640   -3.9320 hc        1 MOL      0.035370
     68 H29        -6.1630   -2.4560   -3.8200 hc        1 MOL      0.035370
     69 N6         -6.8740   -2.3500    0.1980 n         1 MOL     -0.118711
     70 C23        -6.8740   -3.5260    1.0980 c3        1 MOL     -0.203789
     71 C24        -5.5510   -4.3300    1.0410 c         1 MOL      0.625934
     72 O13        -5.4910   -5.3590    1.7080 o         1 MOL     -0.622752
     73 H30        -6.8020   -1.3900    0.5000 hn        1 MOL      0.184963
     74 H31        -7.7280   -4.1680    0.8770 h1        1 MOL      0.076006
     75 H32        -6.9550   -3.1370    2.1060 h1        1 MOL      0.076006
     76 N7         -4.5210   -3.8030    0.4320 n         1 MOL     -0.210143
     77 C25        -3.2120   -4.5050    0.4200 c3        1 MOL      0.033646
     78 C26        -2.0950   -3.4630    0.7660 c         1 MOL      0.556227
     79 O14        -2.2700   -2.2150    0.5830 o         1 MOL     -0.694913
     80 C27        -2.9680   -5.2840   -0.8760 c3        1 MOL     -0.108201
     81 C28        -3.1330   -4.5840   -2.2640 c3        1 MOL     -0.039581
     82 C29        -2.0800   -3.4850   -2.6590 c         1 MOL      0.384363
     83 N8         -1.8970   -3.2160   -3.9580 n         1 MOL     -0.643175
     84 O15        -1.4020   -2.9280   -1.8500 o         1 MOL     -0.386451
     85 H33        -4.6760   -3.0650   -0.2300 hn        1 MOL      0.093856
     86 H34        -3.1980   -5.2390    1.2300 h1        1 MOL      0.042865
     87 H35        -3.6530   -6.1280   -0.9110 hc        1 MOL      0.032384
     88 H36        -1.9220   -5.5970   -0.8080 hc        1 MOL      0.032384
     89 H37        -4.1840   -4.2990   -2.3640 hc        1 MOL      0.054165
     90 H38        -3.0530   -5.3930   -2.9860 hc        1 MOL      0.054165
     91 H39        -2.4010   -3.8590   -4.5510 hn        1 MOL      0.318500
     92 H40        -1.0590   -2.7390   -4.2810 hn        1 MOL      0.318500
     93 N9         -0.9440   -3.9220    1.2110 n         1 MOL     -0.373231
     94 C30         0.2470   -3.1540    1.7410 c3        1 MOL     -0.065240
     95 C31         1.4860   -3.5020    0.9220 c         1 MOL      0.480009
     96 O16         2.0900   -4.5250    1.0970 o         1 MOL     -0.585340
     97 C32         0.5570   -3.3100    3.2650 c3        1 MOL      0.256321
     98 C33         1.5770   -2.2530    3.7510 c3        1 MOL     -0.268441
     99 C34        -0.6950   -3.2270    4.1720 c3        1 MOL     -0.268441
    100 H41        -0.9170   -4.9230    1.2840 hn        1 MOL      0.268973
    101 H42         0.0590   -2.1000    1.5740 h1        1 MOL      0.204889
    102 H43         1.0290   -4.2670    3.4840 hc        1 MOL     -0.030721
    103 H44         1.6720   -2.3760    4.8330 hc        1 MOL      0.055109
    104 H45         2.5700   -2.3680    3.3050 hc        1 MOL      0.055109
    105 H46         1.2640   -1.2420    3.5180 hc        1 MOL      0.055109
    106 H47        -1.3430   -4.0760    3.9620 hc        1 MOL      0.055109
    107 H48        -0.4090   -3.2010    5.2280 hc        1 MOL      0.055109
    108 H49        -1.2450   -2.3000    4.0130 hc        1 MOL      0.055109
    109 N10         1.8690   -2.6630   -0.0220 n         1 MOL     -0.272068
    110 C35         2.9470   -2.9260   -0.9260 c3        1 MOL      0.063018
    111 C36         4.2610   -2.2910   -0.3280 c         1 MOL      0.397850
    112 O17         4.2170   -1.5500    0.6350 o         1 MOL     -0.306285
    113 C37         2.5600   -2.3190   -2.2960 c3        1 MOL     -0.169908
    114 C38         3.0740   -0.9250   -2.5160 c         1 MOL      0.457684
    115 N11         2.3390    0.0580   -2.2220 n         1 MOL     -0.461845
    116 O18         4.1130   -0.7160   -3.0260 o         1 MOL     -0.572708
    117 H50         1.2640   -1.8870   -0.2430 hn        1 MOL      0.140135
    118 H51         3.0800   -3.9630   -1.2260 h1        1 MOL      0.069610
    119 H52         1.5110   -2.3990   -2.5570 hc        1 MOL      0.065061
    120 H53         3.1350   -2.9540   -2.9700 hc        1 MOL      0.065061
    121 H54         1.4000   -0.1120   -1.9000 hn        1 MOL      0.313346
    122 H55         2.6560    0.9050   -2.6590 hn        1 MOL      0.313346
    123 N12         5.4240   -2.5240   -0.9410 n         1 MOL     -0.592245
    124 C39         6.7100   -2.0790   -0.3840 c3        1 MOL      0.260137
    125 C40         6.8300   -0.5850   -0.2590 c         1 MOL      0.805133
    126 O19         7.2640   -0.1290    0.7350 o         1 MOL     -0.609296
    127 C41         7.7250   -2.5880   -1.4120 c3        1 MOL     -0.138953
    128 C42         9.1650   -2.2040   -1.1390 ca        1 MOL      0.001871
    129 C43         9.7440   -2.5360    0.0850 ca        1 MOL     -0.194275
    130 C44         9.7800   -1.2580   -1.9120 ca        1 MOL     -0.194275
    131 C45        11.0060   -2.1100    0.4500 ca        1 MOL     -0.211712
    132 C46        10.9800   -0.6180   -1.5050 ca        1 MOL     -0.211712
    133 C47        11.6120   -1.1570   -0.3660 ca        1 MOL      0.352276
    134 O20        12.8130   -0.6160   -0.0620 oh        1 MOL     -0.572792
    135 H56         5.4230   -3.2360   -1.6630 hn        1 MOL      0.297422
    136 H57         6.9180   -2.4910    0.6020 h1        1 MOL      0.008478
    137 H58         7.4710   -2.1380   -2.3670 hc        1 MOL      0.050215
    138 H59         7.6650   -3.6760   -1.4620 hc        1 MOL      0.050215
    139 H60         9.1860   -3.1470    0.7870 ha        1 MOL      0.138009
    140 H61         9.4410   -0.9770   -2.9010 ha        1 MOL      0.138009
    141 H62        11.3970   -2.4080    1.4110 ha        1 MOL      0.137632
    142 H63        11.4470    0.1280   -2.1210 ha        1 MOL      0.137632
    143 H64        13.0090    0.2470   -0.4420 ho        1 MOL      0.399304
    144 N13         6.2360    0.2320   -1.1660 n         1 MOL     -0.555208
    145 C48         6.2900    1.6780   -1.0420 c3        1 MOL      0.010548
    146 C49         5.5470    2.2430    0.1920 c         1 MOL      0.373815
    147 O21         5.9410    3.3480    0.6460 o         1 MOL     -0.520075
    148 C50         5.6120    2.2930   -2.3080 c3        1 MOL      0.070646
    149 C51         6.0600    3.7090   -2.5190 c3        1 MOL     -0.287765
    150 C52         5.1930    4.3760   -3.6230 c         1 MOL      0.756050
    151 O22         3.9480    4.3960   -3.4720 o         1 MOL     -0.746422
    152 O23         5.7540    4.9740   -4.5050 o         1 MOL     -0.746422
    153 H65         5.7490   -0.2110   -1.9270 hn        1 MOL      0.255642
    154 H66         7.3400    1.9430   -0.8750 h1        1 MOL      0.066632
    155 H67         4.5450    2.0710   -2.2150 hc        1 MOL      0.005869
    156 H68         5.9390    1.7200   -3.1710 hc        1 MOL      0.005869
    157 H69         7.0690    3.7350   -2.9200 hc        1 MOL      0.046830
    158 H70         5.9100    4.3390   -1.6460 hc        1 MOL      0.046830
    159 N14         4.5110    1.5010    0.6690 n         1 MOL      0.011741
    160 C53         3.7550    1.7750    1.8540 c3        1 MOL     -0.163561
    161 C54         4.4410    1.2650    3.1280 c         1 MOL      0.397315
    162 O24         4.4440    1.9920    4.1620 o         1 MOL     -0.553579
    163 C55         2.3100    1.3240    1.7900 c3        1 MOL      0.305888
    164 C56         1.5080    1.7650    0.5030 c3        1 MOL     -0.105480
    165 C57         0.2750    0.9370    0.1180 c         1 MOL      0.581604
    166 O25        -0.8920    1.4020    0.2470 o         1 MOL     -0.677790
    167 O26         0.3050   -0.2650   -0.2110 o         1 MOL     -0.677790
    168 H71         4.1830    0.7630    0.0680 hn        1 MOL      0.085365
    169 H72         3.6440    2.8600    1.9050 h1        1 MOL      0.084277
    170 H73         1.7930    1.6430    2.7050 hc        1 MOL     -0.028657
    171 H74         2.3140    0.2330    1.7800 hc        1 MOL     -0.028657
    172 H75         2.1520    1.9280   -0.3640 hc        1 MOL      0.030036
    173 H76         1.1480    2.7810    0.6520 hc        1 MOL      0.030036
    174 N15         5.1080    0.1200    3.0580 n         1 MOL     -0.035646
    175 C58         5.7280   -0.5630    4.1730 c3        1 MOL     -0.189213
    176 H77         5.7760    0.1100    5.0290 h1        1 MOL      0.071186
    177 H78         5.1380   -1.4420    4.4360 h1        1 MOL      0.071186
    178 H79         6.7360   -0.8720    3.8970 h1        1 MOL      0.071186
    179 H80         5.1470   -0.3320    2.1570 hn        1 MOL      0.044789
    180 Ca1        -2.2250   -0.2670   -1.1070 Ca        1 MOL      1.733365
    181 O27        -0.5030   -0.1940   -3.2100 oh        1 MOL     -0.843479
    182 H81        -0.3190   -0.8150   -3.9230 ho        1 MOL      0.402092
    183 H82        -0.6150    0.6480   -3.6480 ho        1 MOL      0.402092
@<TRIPOS>BOND
     1    1    2 1   
     2    1    4 1   
     3    1    5 1   
     4    1    6 1   
     5    2    3 2   
     6    2    7 1   
     7    7    8 1   
     8    7   15 1   
     9    8    9 1   
    10    8   11 1   
    11    8   16 1   
    12    9   10 2   
    13    9   19 1   
    14   11   12 1   
    15   11   17 1   
    16   11   18 1   
    17   12   13 1   
    18   12   14 1   
    19   19   20 1   
    20   19   27 1   
    21   20   21 1   
    22   20   23 1   
    23   20   28 1   
    24   21   22 2   
    25   21   38 1   
    26   23   24 1   
    27   23   25 1   
    28   23   29 1   
    29   24   26 1   
    30   24   30 1   
    31   24   31 1   
    32   25   32 1   
    33   25   33 1   
    34   25   34 1   
    35   26   35 1   
    36   26   36 1   
    37   26   37 1   
    38   38   39 1   
    39   38   46 1   
    40   39   40 1   
    41   39   42 1   
    42   39   47 1   
    43   40   41 2   
    44   40   50 1   
    45   42   43 1   
    46   42   48 1   
    47   42   49 1   
    48   43   44 1   
    49   43   45 1   
    50   50   51 1   
    51   50   54 1   
    52   51   52 1   
    53   51   55 1   
    54   51   56 1   
    55   52   53 2   
    56   52   57 1   
    57   57   58 1   
    58   57   65 1   
    59   58   59 1   
    60   58   61 1   
    61   58   66 1   
    62   59   60 2   
    63   59   69 1   
    64   61   62 1   
    65   61   67 1   
    66   61   68 1   
    67   62   63 1   
    68   62   64 1   
    69   69   70 1   
    70   69   73 1   
    71   70   71 1   
    72   70   74 1   
    73   70   75 1   
    74   71   72 2   
    75   71   76 1   
    76   76   77 1   
    77   76   85 1   
    78   77   78 1   
    79   77   80 1   
    80   77   86 1   
    81   78   79 2   
    82   78   93 1   
    83   80   81 1   
    84   80   87 1   
    85   80   88 1   
    86   81   82 1   
    87   81   89 1   
    88   81   90 1   
    89   82   83 1   
    90   82   84 2   
    91   83   91 1   
    92   83   92 1   
    93   93   94 1   
    94   93  100 1   
    95   94   95 1   
    96   94   97 1   
    97   94  101 1   
    98   95   96 2   
    99   95  109 1   
   100   97   98 1   
   101   97   99 1   
   102   97  102 1   
   103   98  103 1   
   104   98  104 1   
   105   98  105 1   
   106   99  106 1   
   107   99  107 1   
   108   99  108 1   
   109  109  110 1   
   110  109  117 1   
   111  110  111 1   
   112  110  113 1   
   113  110  118 1   
   114  111  112 2   
   115  111  123 1   
   116  113  114 1   
   117  113  119 1   
   118  113  120 1   
   119  114  115 1   
   120  114  116 2   
   121  115  121 1   
   122  115  122 1   
   123  123  124 1   
   124  123  135 1   
   125  124  125 1   
   126  124  127 1   
   127  124  136 1   
   128  125  126 2   
   129  125  144 1   
   130  127  128 1   
   131  127  137 1   
   132  127  138 1   
   133  128  129 ar  
   134  128  130 ar  
   135  129  131 ar  
   136  129  139 1   
   137  130  132 ar  
   138  130  140 1   
   139  131  133 ar  
   140  131  141 1   
   141  132  133 ar  
   142  132  142 1   
   143  133  134 1   
   144  134  143 1   
   145  144  145 1   
   146  144  153 1   
   147  145  146 1   
   148  145  148 1   
   149  145  154 1   
   150  146  147 2   
   151  146  159 1   
   152  148  149 1   
   153  148  155 1   
   154  148  156 1   
   155  149  150 1   
   156  149  157 1   
   157  149  158 1   
   158  150  151 1   
   159  150  152 1   
   160  159  160 1   
   161  159  168 1   
   162  160  161 1   
   163  160  163 1   
   164  160  169 1   
   165  161  162 2   
   166  161  174 1   
   167  163  164 1   
   168  163  170 1   
   169  163  171 1   
   170  164  165 1   
   171  164  172 1   
   172  164  173 1   
   173  165  166 1   
   174  165  167 1   
   175  174  175 1   
   176  174  179 1   
   177  175  176 1   
   178  175  177 1   
   179  175  178 1   
   180  181  182 1   
   181  181  183 1   
@<TRIPOS>SUBSTRUCTURE
     1 MOL         1 TEMP              0 ****  ****    0 ROOT
