@<TRIPOS>MOLECULE
MOL
  175   173     1     0     0
SMALL
resp


@<TRIPOS>ATOM
      1 C1          0.4780    4.3900    5.4520 c3        1 MOL     -0.417888
      2 C2         -0.0650    4.4290    3.9990 c         1 MOL      0.727585
      3 O1          0.6190    4.6970    3.0210 o         1 MOL     -0.551212
      4 H1         -0.2620    4.8190    6.1280 hc        1 MOL      0.099079
      5 H2          0.6750    3.3560    5.7390 hc        1 MOL      0.099079
      6 H3          1.4010    4.9660    5.5120 hc        1 MOL      0.099079
      7 N1         -1.3940    4.3140    3.8840 n         1 MOL     -0.657415
      8 C3         -2.0450    3.8630    2.6040 c3        1 MOL      0.126924
      9 C4         -2.3570    5.0800    1.6760 c         1 MOL      0.730973
     10 O2         -2.4950    6.2140    2.1460 o         1 MOL     -0.586376
     11 C5         -3.3260    3.1310    2.9870 c3        1 MOL     -0.307086
     12 C6         -3.9880    2.2910    1.8640 c         1 MOL      0.742580
     13 O3         -5.1560    1.8250    2.0590 o         1 MOL     -0.704849
     14 O4         -3.4310    2.0990    0.7630 o         1 MOL     -0.704849
     15 H4         -1.8960    4.4050    4.7600 hn        1 MOL      0.328801
     16 H5         -1.3700    3.2030    2.0690 h1        1 MOL      0.103845
     17 H6         -4.0130    3.8470    3.4320 hc        1 MOL      0.064334
     18 H7         -3.0060    2.4530    3.7800 hc        1 MOL      0.064334
     19 N2         -2.5680    4.8230    0.4030 n         1 MOL     -0.827807
     20 C7         -3.0730    5.7810   -0.5960 c3        1 MOL      0.409775
     21 C8         -3.9650    5.0930   -1.7010 c         1 MOL      0.494903
     22 O5         -4.1750    5.7640   -2.6800 o         1 MOL     -0.562198
     23 C9         -1.8750    6.4210   -1.2520 c3        1 MOL     -0.173403
     24 H8         -2.4960    3.8820    0.0460 hn        1 MOL      0.462424
     25 H9         -3.6690    6.5360   -0.1020 h1        1 MOL     -0.013325
     26 H10        -1.2430    5.7460   -1.8320 hc        1 MOL      0.037811
     27 H11        -2.2260    7.1550   -1.9890 hc        1 MOL      0.037811
     28 H12        -1.3920    7.0530   -0.5030 hc        1 MOL      0.037811
     29 N3         -4.4470    3.8730   -1.5370 n         1 MOL     -0.583043
     30 C10        -5.2070    3.2450   -2.6310 c3        1 MOL      0.290526
     31 C11        -6.3730    2.2730   -2.2250 c         1 MOL      0.305681
     32 O6         -7.3010    2.1010   -3.0550 o         1 MOL     -0.541066
     33 C12        -4.1880    2.4820   -3.5300 c3        1 MOL     -0.290133
     34 C13        -3.2910    1.4330   -2.8820 c         1 MOL      0.732919
     35 O7         -2.0630    1.3870   -3.1540 o         1 MOL     -0.698580
     36 O8         -3.7580    0.8080   -1.9270 o         1 MOL     -0.698580
     37 H13        -4.1770    3.3900   -0.6990 hn        1 MOL      0.309793
     38 H14        -5.7200    3.9650   -3.2690 h1        1 MOL      0.054112
     39 H15        -3.5980    3.2950   -3.9590 hc        1 MOL      0.064664
     40 H16        -4.6640    2.0010   -4.3850 hc        1 MOL      0.064664
     41 N4         -6.5360    1.7410   -0.9980 n         1 MOL     -0.142768
     42 C14        -7.6060    0.8130   -0.5210 c3        1 MOL     -0.394177
     43 C15        -7.5020   -0.6030   -1.0240 c         1 MOL      0.611134
     44 O9         -8.3870   -1.3920   -0.8150 o         1 MOL     -0.606188
     45 H17        -5.7600    1.9220   -0.3810 hn        1 MOL      0.143976
     46 H18        -8.5290    1.3300   -0.7860 h1        1 MOL      0.172406
     47 H19        -7.5220    0.7530    0.5630 h1        1 MOL      0.172406
     48 N5         -6.3150   -1.0110   -1.5170 n         1 MOL     -0.281654
     49 C16        -6.1130   -2.3940   -2.0130 c3        1 MOL     -0.002820
     50 C17        -6.0190   -3.3990   -0.9120 c         1 MOL      0.402600
     51 O10        -6.0260   -4.6110   -1.1650 o         1 MOL     -0.544808
     52 C18        -4.8980   -2.5690   -2.9760 c3        1 MOL     -0.231077
     53 C19        -3.4940   -2.2790   -2.3920 c         1 MOL      0.597374
     54 N6         -2.4980   -2.0930   -3.2090 n         1 MOL     -0.670397
     55 O11        -3.3050   -2.2460   -1.2060 o         1 MOL     -0.405582
     56 H20        -5.5230   -0.4040   -1.3870 hn        1 MOL      0.216941
     57 H21        -6.9640   -2.7330   -2.6120 h1        1 MOL      0.120410
     58 H22        -5.0780   -1.8730   -3.8040 hc        1 MOL      0.067864
     59 H23        -4.8350   -3.5960   -3.3440 hc        1 MOL      0.067864
     60 H24        -2.6590   -2.1620   -4.2100 hn        1 MOL      0.320046
     61 H25        -1.5480   -1.8870   -2.9480 hn        1 MOL      0.320046
     62 N7         -5.9650   -3.0780    0.3940 n         1 MOL     -0.039481
     63 C20        -6.1200   -4.0130    1.4760 c3        1 MOL     -0.239298
     64 C21        -4.7590   -4.7130    1.7240 c         1 MOL      0.577922
     65 O12        -4.7210   -5.8680    2.1500 o         1 MOL     -0.589060
     66 H26        -6.0100   -2.1010    0.6430 hn        1 MOL      0.164143
     67 H27        -6.9540   -4.6940    1.3110 h1        1 MOL      0.091018
     68 H28        -6.3180   -3.4300    2.3800 h1        1 MOL      0.091018
     69 N8         -3.6920   -4.1020    1.3760 n         1 MOL     -0.319444
     70 C22        -2.2930   -4.6640    1.4500 c3        1 MOL     -0.203500
     71 C23        -1.2910   -3.5600    1.5570 c         1 MOL      0.773919
     72 O13        -1.5150   -2.4640    1.0430 o         1 MOL     -0.636852
     73 C24        -1.9510   -5.5200    0.2470 c3        1 MOL      0.552739
     74 C25        -2.7120   -6.8580    0.0640 c3        1 MOL     -0.592265
     75 O14        -2.0880   -4.8790   -0.9590 oh        1 MOL     -0.567061
     76 H29        -3.7160   -3.1690    0.9720 hn        1 MOL      0.186901
     77 H30        -2.2000   -5.4400    2.2170 h1        1 MOL      0.078602
     78 H31        -0.9240   -5.8520    0.4140 h1        1 MOL     -0.048171
     79 H32        -1.9100   -3.9470   -0.8250 ho        1 MOL      0.289008
     80 H33        -2.2110   -7.4820   -0.6790 hc        1 MOL      0.154711
     81 H34        -2.9750   -7.4670    0.9260 hc        1 MOL      0.154711
     82 H35        -3.6690   -6.6120   -0.4020 hc        1 MOL      0.154711
     83 N9         -0.1680   -3.7590    2.2190 n         1 MOL     -0.758887
     84 C26         0.9730   -2.8120    2.2370 c3        1 MOL      0.043125
     85 C27         1.6520   -3.0000    0.9000 c         1 MOL      0.582094
     86 O15         2.1150   -4.1420    0.6220 o         1 MOL     -0.599548
     87 C28         2.0430   -2.9400    3.3360 c3        1 MOL      0.233915
     88 C29         1.4690   -3.1940    4.7840 c3        1 MOL      0.297274
     89 C30         2.9130   -1.6840    3.4190 c3        1 MOL     -0.447327
     90 C31         2.3860   -3.3410    6.0310 c3        1 MOL     -0.342428
     91 H36        -0.0840   -4.6920    2.5970 hn        1 MOL      0.344886
     92 H37         0.5710   -1.8020    2.3090 h1        1 MOL      0.097697
     93 H38         2.6230   -3.8440    3.1290 hc        1 MOL     -0.050017
     94 H39         0.8400   -4.0890    4.8140 hc        1 MOL     -0.071947
     95 H40         0.7920   -2.3660    4.9950 hc        1 MOL     -0.071947
     96 H41         3.6870   -1.8490    4.1700 hc        1 MOL      0.093362
     97 H42         3.3630   -1.4600    2.4530 hc        1 MOL      0.093362
     98 H43         2.2580   -0.8420    3.6840 hc        1 MOL      0.093362
     99 H44         3.4170   -3.5350    5.7300 hc        1 MOL      0.072145
    100 H45         2.4600   -2.3960    6.5800 hc        1 MOL      0.072145
    101 H46         2.0800   -4.2170    6.5960 hc        1 MOL      0.072145
    102 N10         1.6610   -2.0000    0.0480 n         1 MOL     -0.251303
    103 C32         2.5800   -1.9000   -1.1360 c3        1 MOL     -0.091350
    104 C33         4.0480   -1.5450   -0.7980 c         1 MOL      0.518770
    105 O16         4.3350   -1.0850    0.2600 o         1 MOL     -0.363748
    106 C34         1.9490   -1.0120   -2.1960 c3        1 MOL     -0.124765
    107 C35         0.5430   -1.3960   -2.5090 c         1 MOL      0.734977
    108 O17         0.3640   -1.9940   -3.5770 o         1 MOL     -0.665442
    109 O18        -0.3260   -0.9490   -1.7240 o         1 MOL     -0.665442
    110 H47         1.0610   -1.2050    0.2310 hn        1 MOL      0.168032
    111 H48         2.6920   -2.8630   -1.6350 h1        1 MOL      0.078036
    112 H49         2.4910   -0.9890   -3.1410 hc        1 MOL      0.037439
    113 H50         1.9140    0.0270   -1.8770 hc        1 MOL      0.037439
    114 N11         5.0160   -1.7380   -1.7190 n         1 MOL     -0.662071
    115 C36         6.4030   -1.3180   -1.4870 c3        1 MOL      0.470599
    116 C37         6.7270    0.1930   -1.3510 c         1 MOL      0.294967
    117 O19         7.4820    0.5280   -0.3950 o         1 MOL     -0.464463
    118 C38         7.3040   -1.9820   -2.5040 c3        1 MOL     -0.325854
    119 C39         8.8180   -1.8270   -2.1180 ca        1 MOL      0.188961
    120 C40         9.6490   -1.1130   -2.9970 ca        1 MOL     -0.235815
    121 C41         9.3990   -2.3910   -0.9560 ca        1 MOL     -0.235815
    122 C42        10.9750   -0.9460   -2.7140 ca        1 MOL     -0.049653
    123 C43        10.7660   -2.2290   -0.6530 ca        1 MOL     -0.049653
    124 C44        11.5770   -1.4860   -1.5510 ca        1 MOL     -0.182971
    125 H51         4.7110   -2.1790   -2.5820 hn        1 MOL      0.316436
    126 H52         6.6750   -1.7390   -0.5210 h1        1 MOL      0.029831
    127 H53         7.1200   -1.5590   -3.4930 hc        1 MOL      0.087361
    128 H54         7.1980   -3.0720   -2.4820 hc        1 MOL      0.087361
    129 H55         9.1370   -0.6560   -3.8350 ha        1 MOL      0.130272
    130 H56         8.8070   -3.0860   -0.3850 ha        1 MOL      0.130272
    131 H57        11.5360   -0.3700   -3.4440 ha        1 MOL      0.099516
    132 H58        11.0640   -2.5970    0.3230 ha        1 MOL      0.099516
    133 H59        12.6090   -1.3020   -1.3120 ha        1 MOL      0.118210
    134 N12         6.0790    1.1660   -2.0800 n         1 MOL     -0.132578
    135 C45         6.1850    2.5500   -1.7000 c3        1 MOL      0.112364
    136 C46         5.6480    2.9560   -0.2660 c         1 MOL      0.218913
    137 O20         6.1740    3.8220    0.4540 o         1 MOL     -0.488427
    138 C47         5.3400    3.2740   -2.7600 c3        1 MOL     -0.132112
    139 C48         5.4890    2.3040   -3.9300 c3        1 MOL     -0.015036
    140 C49         5.3730    0.9840   -3.2980 c3        1 MOL      0.020188
    141 H60         7.2320    2.8580   -1.7340 h1        1 MOL      0.044418
    142 H61         4.2950    3.4310   -2.5100 hc        1 MOL      0.063910
    143 H62         5.7360    4.2890   -2.9040 hc        1 MOL      0.063910
    144 H63         4.7510    2.4300   -4.7230 hc        1 MOL      0.020080
    145 H64         6.4770    2.4100   -4.3800 hc        1 MOL      0.020080
    146 H65         4.3270    0.6950   -3.1700 h1        1 MOL      0.030881
    147 H66         5.8060    0.3480   -4.0680 h1        1 MOL      0.030881
    148 N13         4.6660    2.2180    0.2360 n         1 MOL      0.022218
    149 C50         4.0860    2.3990    1.5230 c3        1 MOL     -0.124884
    150 C51         4.9160    1.7640    2.6110 c         1 MOL      0.442233
    151 O21         4.9570    2.3700    3.7010 o         1 MOL     -0.565480
    152 C52         2.7440    1.7170    1.5350 c3        1 MOL     -0.149224
    153 C53         1.8470    2.2900    0.4930 c3        1 MOL     -0.022333
    154 C54         0.5430    1.5160    0.4580 c         1 MOL      0.807267
    155 O22        -0.5140    2.0560    0.0670 o         1 MOL     -0.819954
    156 O23         0.3960    0.3620    0.8320 o         1 MOL     -0.819954
    157 H67         4.3270    1.4920   -0.3830 hn        1 MOL      0.135532
    158 H68         4.0320    3.4780    1.6900 h1        1 MOL      0.124463
    159 H69         2.2950    1.7340    2.5290 hc        1 MOL      0.071660
    160 H70         2.9370    0.6560    1.3320 hc        1 MOL      0.071660
    161 H71         2.3420    2.3080   -0.4790 hc        1 MOL      0.026911
    162 H72         1.5610    3.3280    0.6480 hc        1 MOL      0.026911
    163 N14         5.5960    0.6750    2.2920 n         1 MOL      0.009590
    164 C55         6.5710    0.0510    3.1890 c3        1 MOL     -0.173539
    165 H73         6.3050    0.2700    4.2230 h1        1 MOL      0.068523
    166 H74         6.5700   -1.0280    3.0350 h1        1 MOL      0.068523
    167 H75         7.5640    0.4480    2.9790 h1        1 MOL      0.068523
    168 H76         5.4610    0.2970    1.3620 hn        1 MOL      0.013137
    169 Ca1        -2.0560   -0.0670   -0.1580 Ca        1 MOL      1.707783
    170 O24        -1.8160    0.0070    2.5590 oh        1 MOL     -0.795852
    171 H77        -2.1040    0.3040    3.4230 ho        1 MOL      0.398011
    172 H78        -0.8590   -0.0140    2.6130 ho        1 MOL      0.398011
    173 O25        -4.5820   -0.6370    1.0300 oh        1 MOL     -0.795852
    174 H79        -4.8520   -0.8250    1.9230 ho        1 MOL      0.398011
    175 H80        -4.7510    0.2960    0.9260 ho        1 MOL      0.398011
@<TRIPOS>BOND
     1    1    2 1   
     2    1    4 1   
     3    1    5 1   
     4    1    6 1   
     5    2    3 2   
     6    2    7 1   
     7    7    8 1   
     8    7   15 1   
     9    8    9 1   
    10    8   11 1   
    11    8   16 1   
    12    9   10 2   
    13    9   19 1   
    14   11   12 1   
    15   11   17 1   
    16   11   18 1   
    17   12   13 1   
    18   12   14 1   
    19   19   20 1   
    20   19   24 1   
    21   20   21 1   
    22   20   23 1   
    23   20   25 1   
    24   21   22 2   
    25   21   29 1   
    26   23   26 1   
    27   23   27 1   
    28   23   28 1   
    29   29   30 1   
    30   29   37 1   
    31   30   31 1   
    32   30   33 1   
    33   30   38 1   
    34   31   32 2   
    35   31   41 1   
    36   33   34 1   
    37   33   39 1   
    38   33   40 1   
    39   34   35 1   
    40   34   36 1   
    41   41   42 1   
    42   41   45 1   
    43   42   43 1   
    44   42   46 1   
    45   42   47 1   
    46   43   44 2   
    47   43   48 1   
    48   48   49 1   
    49   48   56 1   
    50   49   50 1   
    51   49   52 1   
    52   49   57 1   
    53   50   51 2   
    54   50   62 1   
    55   52   53 1   
    56   52   58 1   
    57   52   59 1   
    58   53   54 1   
    59   53   55 2   
    60   54   60 1   
    61   54   61 1   
    62   62   63 1   
    63   62   66 1   
    64   63   64 1   
    65   63   67 1   
    66   63   68 1   
    67   64   65 2   
    68   64   69 1   
    69   69   70 1   
    70   69   76 1   
    71   70   71 1   
    72   70   73 1   
    73   70   77 1   
    74   71   72 2   
    75   71   83 1   
    76   73   74 1   
    77   73   75 1   
    78   73   78 1   
    79   74   80 1   
    80   74   81 1   
    81   74   82 1   
    82   75   79 1   
    83   83   84 1   
    84   83   91 1   
    85   84   85 1   
    86   84   87 1   
    87   84   92 1   
    88   85   86 2   
    89   85  102 1   
    90   87   88 1   
    91   87   89 1   
    92   87   93 1   
    93   88   90 1   
    94   88   94 1   
    95   88   95 1   
    96   89   96 1   
    97   89   97 1   
    98   89   98 1   
    99   90   99 1   
   100   90  100 1   
   101   90  101 1   
   102  102  103 1   
   103  102  110 1   
   104  103  104 1   
   105  103  106 1   
   106  103  111 1   
   107  104  105 2   
   108  104  114 1   
   109  106  107 1   
   110  106  112 1   
   111  106  113 1   
   112  107  108 1   
   113  107  109 1   
   114  114  115 1   
   115  114  125 1   
   116  115  116 1   
   117  115  118 1   
   118  115  126 1   
   119  116  117 2   
   120  116  134 1   
   121  118  119 1   
   122  118  127 1   
   123  118  128 1   
   124  119  120 ar  
   125  119  121 ar  
   126  120  122 ar  
   127  120  129 1   
   128  121  123 ar  
   129  121  130 1   
   130  122  124 ar  
   131  122  131 1   
   132  123  124 ar  
   133  123  132 1   
   134  124  133 1   
   135  134  135 1   
   136  134  140 1   
   137  135  136 1   
   138  135  138 1   
   139  135  141 1   
   140  136  137 2   
   141  136  148 1   
   142  138  139 1   
   143  138  142 1   
   144  138  143 1   
   145  139  140 1   
   146  139  144 1   
   147  139  145 1   
   148  140  146 1   
   149  140  147 1   
   150  148  149 1   
   151  148  157 1   
   152  149  150 1   
   153  149  152 1   
   154  149  158 1   
   155  150  151 2   
   156  150  163 1   
   157  152  153 1   
   158  152  159 1   
   159  152  160 1   
   160  153  154 1   
   161  153  161 1   
   162  153  162 1   
   163  154  155 1   
   164  154  156 1   
   165  163  164 1   
   166  163  168 1   
   167  164  165 1   
   168  164  166 1   
   169  164  167 1   
   170  170  171 1   
   171  170  172 1   
   172  173  174 1   
   173  173  175 1   
@<TRIPOS>SUBSTRUCTURE
     1 MOL         1 TEMP              0 ****  ****    0 ROOT
