@<TRIPOS>MOLECULE
MOL
  175   173     1     0     0
SMALL
resp


@<TRIPOS>ATOM
      1 C1         -0.4190   -4.8570    5.1450 c3        1 MOL     -0.393086
      2 C2          0.1180   -4.5080    3.7750 c         1 MOL      0.705957
      3 O1         -0.5760   -4.7730    2.8160 o         1 MOL     -0.528495
      4 H1         -0.4270   -5.9400    5.2670 hc        1 MOL      0.091641
      5 H2          0.2160   -4.4110    5.9100 hc        1 MOL      0.091641
      6 H3         -1.4350   -4.4730    5.2470 hc        1 MOL      0.091641
      7 N1          1.3660   -4.1860    3.6810 n         1 MOL     -0.585100
      8 C3          2.0640   -3.7430    2.4450 c3        1 MOL      0.023254
      9 C4          2.1510   -4.8200    1.4090 c         1 MOL      0.634629
     10 O2          2.0760   -6.0080    1.7200 o         1 MOL     -0.548528
     11 C5          3.4660   -3.3240    2.8520 c3        1 MOL     -0.372126
     12 C6          4.3270   -2.7080    1.7830 c         1 MOL      0.752345
     13 O3          5.5350   -2.8750    1.9170 o         1 MOL     -0.657069
     14 O4          3.8010   -2.0560    0.9070 o         1 MOL     -0.657069
     15 H4          1.8830   -4.3580    4.5310 hn        1 MOL      0.332987
     16 H5          1.5930   -2.8420    2.0470 h1        1 MOL      0.114782
     17 H6          4.0120   -4.2060    3.1570 hc        1 MOL      0.080536
     18 H7          3.4420   -2.6400    3.7060 hc        1 MOL      0.080536
     19 N2          2.2600   -4.3850    0.1050 n         1 MOL     -0.476004
     20 C7          2.2360   -5.1810   -1.1120 c3        1 MOL      0.096953
     21 C8          3.2320   -4.5460   -2.1650 c         1 MOL      0.480600
     22 O5          3.1650   -4.8910   -3.3580 o         1 MOL     -0.547831
     23 C9          0.8190   -5.2330   -1.6710 c3        1 MOL     -0.173952
     24 H8          2.4260   -3.3980    0.0020 hn        1 MOL      0.306255
     25 H9          2.6830   -6.1390   -0.8650 h1        1 MOL      0.042583
     26 H10         0.6520   -5.9270   -2.4930 hc        1 MOL      0.056417
     27 H11         0.1330   -5.5370   -0.8800 hc        1 MOL      0.056417
     28 H12         0.4050   -4.3140   -2.0940 hc        1 MOL      0.056417
     29 N3          4.1490   -3.6330   -1.7790 n         1 MOL     -0.321729
     30 C10         5.2000   -3.1500   -2.6960 c3        1 MOL      0.043267
     31 C11         6.3860   -2.4210   -2.0670 c         1 MOL      0.387635
     32 O6          7.4620   -2.5240   -2.6320 o         1 MOL     -0.541877
     33 C12         4.5670   -2.1610   -3.7000 c3        1 MOL      0.071553
     34 C13         3.5830   -1.1620   -3.1270 c         1 MOL      0.574017
     35 O7          2.6060   -0.8900   -3.8800 o         1 MOL     -0.631332
     36 O8          3.6880   -0.6570   -1.9910 o         1 MOL     -0.631332
     37 H13         4.1220   -3.4040   -0.7910 hn        1 MOL      0.157407
     38 H14         5.7040   -3.9760   -3.2070 h1        1 MOL      0.062347
     39 H15         4.0580   -2.7100   -4.4880 hc        1 MOL     -0.014687
     40 H16         5.3700   -1.7100   -4.2910 hc        1 MOL     -0.014687
     41 N4          6.2900   -1.7650   -0.8630 n         1 MOL     -0.065842
     42 C14         7.4060   -0.9590   -0.3580 c3        1 MOL     -0.305415
     43 C15         7.5270    0.4350   -0.8620 c         1 MOL      0.523051
     44 O9          8.6170    1.0520   -0.8010 o         1 MOL     -0.604358
     45 H17         5.4380   -1.9110   -0.3440 hn        1 MOL      0.106095
     46 H18         8.3340   -1.4410   -0.6440 h1        1 MOL      0.128304
     47 H19         7.3180   -1.0030    0.7230 h1        1 MOL      0.128304
     48 N5          6.4250    1.0220   -1.3560 n         1 MOL     -0.047982
     49 C16         6.2290    2.3390   -1.8700 c3        1 MOL     -0.247825
     50 C17         6.1360    3.3970   -0.7590 c         1 MOL      0.559039
     51 O10         6.0470    4.5840   -1.0150 o         1 MOL     -0.524968
     52 C18         5.0650    2.3520   -2.9100 c3        1 MOL      0.109664
     53 C19         3.6270    2.2900   -2.3340 c         1 MOL      0.466267
     54 N6          2.7270    2.5160   -3.2750 n         1 MOL     -0.570167
     55 O11         3.3620    2.1120   -1.1670 o         1 MOL     -0.473878
     56 H20         5.5550    0.4990   -1.3400 hn        1 MOL      0.003031
     57 H21         7.1690    2.5900   -2.3570 h1        1 MOL      0.122512
     58 H22         5.1680    1.5800   -3.6630 hc        1 MOL     -0.000228
     59 H23         5.1560    3.2930   -3.4600 hc        1 MOL     -0.000228
     60 H24         3.1320    2.6630   -4.1900 hn        1 MOL      0.314642
     61 H25         1.7630    2.5110   -2.9710 hn        1 MOL      0.314642
     62 N7          6.2390    3.0670    0.5210 n         1 MOL     -0.278951
     63 C20         6.1940    4.0030    1.6250 c3        1 MOL     -0.235108
     64 C21         4.8110    4.6090    2.0070 c         1 MOL      0.692848
     65 O12         4.7890    5.6030    2.7340 o         1 MOL     -0.616528
     66 H26         6.1590    2.0970    0.7870 hn        1 MOL      0.221889
     67 H27         6.8260    4.8640    1.3820 h1        1 MOL      0.110323
     68 H28         6.5540    3.5730    2.5530 h1        1 MOL      0.110323
     69 N8          3.7540    3.9580    1.5730 n         1 MOL     -0.540440
     70 C22         2.3930    4.4840    1.7090 c3        1 MOL      0.156519
     71 C23         1.3330    3.3310    1.8010 c         1 MOL      0.540504
     72 O13         1.5530    2.2730    1.3000 o         1 MOL     -0.633677
     73 C24         1.8970    5.4320    0.6660 c3        1 MOL      0.543147
     74 C25         2.2280    6.8870    0.9040 c3        1 MOL     -0.509681
     75 O14         2.5370    4.9660   -0.5160 oh        1 MOL     -0.605583
     76 H29         3.9180    3.2730    0.8570 hn        1 MOL      0.262317
     77 H30         2.3130    4.9800    2.6760 h1        1 MOL     -0.001823
     78 H31         0.8100    5.3180    0.6060 h1        1 MOL     -0.073504
     79 H32         2.3670    4.0360   -0.6180 ho        1 MOL      0.297005
     80 H33         1.9220    7.5010    0.0490 hc        1 MOL      0.127166
     81 H34         1.6340    7.1820    1.7570 hc        1 MOL      0.127166
     82 H35         3.2970    7.0870    1.0320 hc        1 MOL      0.127166
     83 N9          0.1740    3.5750    2.4240 n         1 MOL     -0.555005
     84 C26        -0.9710    2.6840    2.2570 c3        1 MOL      0.044677
     85 C27        -1.6810    3.0950    0.9260 c         1 MOL      0.518418
     86 O15        -2.0740    4.2200    0.5750 o         1 MOL     -0.562369
     87 C28        -1.7660    2.6740    3.5510 c3        1 MOL     -0.103349
     88 C29        -1.2170    1.8930    4.7910 c3        1 MOL      0.175717
     89 C30        -3.1800    2.1420    3.3000 c3        1 MOL     -0.308762
     90 C31        -1.1030    0.4440    4.5260 c3        1 MOL     -0.229853
     91 H36         0.0240    4.4930    2.8200 hn        1 MOL      0.291883
     92 H37        -0.5860    1.6700    2.1250 h1        1 MOL      0.327080
     93 H38        -1.8770    3.7370    3.7960 hc        1 MOL      0.036039
     94 H39        -1.7350    2.1440    5.7060 hc        1 MOL     -0.023899
     95 H40        -0.2030    2.2610    4.9600 hc        1 MOL     -0.023899
     96 H41        -3.1860    1.1610    2.8410 hc        1 MOL      0.070556
     97 H42        -3.6980    2.2040    4.2620 hc        1 MOL      0.070556
     98 H43        -3.6990    2.8050    2.5980 hc        1 MOL      0.070556
     99 H44        -0.5000   -0.0740    5.2810 hc        1 MOL      0.033196
    100 H45        -2.1160    0.0390    4.5840 hc        1 MOL      0.033196
    101 H46        -0.7590    0.1780    3.5330 hc        1 MOL      0.033196
    102 N10        -1.7850    2.0550    0.0570 n         1 MOL     -0.155610
    103 C32        -2.6120    2.0750   -1.1590 c3        1 MOL     -0.101635
    104 C33        -4.0330    1.4970   -0.9630 c         1 MOL      0.484694
    105 O16        -4.1990    0.6370   -0.0900 o         1 MOL     -0.302908
    106 C34        -1.8900    1.2130   -2.2380 c3        1 MOL     -0.261648
    107 C35        -0.4380    1.5700   -2.3750 c         1 MOL      0.729201
    108 O17        -0.1090    2.1020   -3.4360 o         1 MOL     -0.661843
    109 O18         0.4000    1.0830   -1.6420 o         1 MOL     -0.661843
    110 H47        -1.2530    1.2090    0.2220 hn        1 MOL      0.079619
    111 H48        -2.6890    3.1330   -1.4000 h1        1 MOL      0.082906
    112 H49        -2.3460    1.3810   -3.2190 hc        1 MOL      0.088134
    113 H50        -2.0580    0.1710   -1.9600 hc        1 MOL      0.088134
    114 N11        -5.0180    1.9560   -1.7400 n         1 MOL     -0.620347
    115 C36        -6.3880    1.5980   -1.4900 c3        1 MOL      0.384605
    116 C37        -6.7100    0.0820   -1.2350 c         1 MOL     -0.038453
    117 O19        -7.4860   -0.2510   -0.3270 o         1 MOL     -0.376366
    118 C38        -7.4440    2.1550   -2.4950 c3        1 MOL     -0.209339
    119 C39        -8.8420    2.1640   -1.9170 ca        1 MOL     -0.002857
    120 C40        -9.8230    1.2130   -2.2860 ca        1 MOL     -0.130781
    121 C41        -9.0560    3.0680   -0.8290 ca        1 MOL     -0.130781
    122 C42       -11.0570    1.1800   -1.5670 ca        1 MOL     -0.114010
    123 C43       -10.2670    3.0270   -0.1380 ca        1 MOL     -0.114010
    124 C44       -11.2580    2.0730   -0.4940 ca        1 MOL     -0.122121
    125 H51        -4.7650    2.4960   -2.5520 hn        1 MOL      0.334868
    126 H52        -6.6290    2.1360   -0.5710 h1        1 MOL      0.057875
    127 H53        -7.4850    1.6110   -3.4410 hc        1 MOL      0.080927
    128 H54        -7.1670    3.1710   -2.7720 hc        1 MOL      0.080927
    129 H55        -9.7000    0.6030   -3.1650 ha        1 MOL      0.120604
    130 H56        -8.2620    3.7530   -0.5510 ha        1 MOL      0.120604
    131 H57       -11.7530    0.4600   -1.9460 ha        1 MOL      0.113612
    132 H58       -10.5130    3.6330    0.7220 ha        1 MOL      0.113612
    133 H59       -12.1350    2.0090    0.1270 ha        1 MOL      0.108998
    134 N12        -6.1570   -0.9460   -1.9410 n         1 MOL      0.276837
    135 C45        -6.5130   -2.2940   -1.7020 c3        1 MOL      0.045817
    136 C46        -5.8950   -2.8090   -0.4220 c         1 MOL      0.178456
    137 O20        -6.5380   -3.6190    0.3120 o         1 MOL     -0.502638
    138 C47        -6.1080   -3.1220   -2.9440 c3        1 MOL     -0.044281
    139 C48        -5.8060   -2.0970   -4.0360 c3        1 MOL     -0.129953
    140 C49        -5.4520   -0.8210   -3.2180 c3        1 MOL     -0.012551
    141 H60        -7.5970   -2.3700   -1.5860 h1        1 MOL      0.052570
    142 H61        -5.1910   -3.6890   -2.7410 hc        1 MOL      0.037196
    143 H62        -6.9640   -3.6730   -3.3360 hc        1 MOL      0.037196
    144 H63        -4.9750   -2.4650   -4.6350 hc        1 MOL      0.056663
    145 H64        -6.7000   -1.8110   -4.5830 hc        1 MOL      0.056663
    146 H65        -4.4060   -0.7010   -2.9190 h1        1 MOL     -0.002765
    147 H66        -5.7990    0.0900   -3.7010 h1        1 MOL     -0.002765
    148 N13        -4.7930   -2.2550    0.0590 n         1 MOL     -0.013481
    149 C50        -4.1780   -2.5390    1.3150 c3        1 MOL     -0.115819
    150 C51        -4.9750   -1.8640    2.4310 c         1 MOL      0.499712
    151 O21        -5.2710   -2.4520    3.4400 o         1 MOL     -0.577338
    152 C52        -2.7310   -2.0970    1.3780 c3        1 MOL      0.240888
    153 C53        -1.7940   -2.2890    0.1230 c3        1 MOL     -0.298076
    154 C54        -0.4140   -1.6320    0.2410 c         1 MOL      0.730460
    155 O22         0.5790   -1.9770   -0.4320 o         1 MOL     -0.743819
    156 O23        -0.2090   -0.7050    0.9970 o         1 MOL     -0.743819
    157 H67        -4.2900   -1.5650   -0.4950 hn        1 MOL      0.079415
    158 H68        -4.1890   -3.6180    1.4350 h1        1 MOL      0.091254
    159 H69        -2.3790   -2.6950    2.2210 hc        1 MOL     -0.044958
    160 H70        -2.6580   -1.0440    1.6660 hc        1 MOL     -0.044958
    161 H71        -2.2380   -1.7900   -0.7390 hc        1 MOL      0.094535
    162 H72        -1.6700   -3.3540   -0.0730 hc        1 MOL      0.094535
    163 N14        -5.4420   -0.6070    2.2800 n         1 MOL     -0.050992
    164 C55        -6.5990   -0.1480    3.0210 c3        1 MOL     -0.236518
    165 H73        -6.9410   -0.9410    3.6880 h1        1 MOL      0.086028
    166 H74        -6.3300    0.7290    3.6090 h1        1 MOL      0.086028
    167 H75        -7.3980    0.1100    2.3260 h1        1 MOL      0.086028
    168 H76        -5.0740   -0.1490    1.4550 hn        1 MOL      0.075468
    169 Ca1         2.1680   -0.0350   -0.0580 Ca        1 MOL      1.657030
    170 O24         1.7360   -0.4250    2.7870 oh        1 MOL     -0.792161
    171 H77         0.7890   -0.5160    2.7100 ho        1 MOL      0.392730
    172 H78         1.9230   -0.5380    3.7180 ho        1 MOL      0.392730
    173 O25         4.6200    0.3770    1.1610 oh        1 MOL     -0.792161
    174 H79         4.5560   -0.5560    1.3410 ho        1 MOL      0.392730
    175 H80         5.1360    0.7290    1.9010 ho        1 MOL      0.392730
@<TRIPOS>BOND
     1    1    2 1   
     2    1    4 1   
     3    1    5 1   
     4    1    6 1   
     5    2    3 2   
     6    2    7 1   
     7    7    8 1   
     8    7   15 1   
     9    8    9 1   
    10    8   11 1   
    11    8   16 1   
    12    9   10 2   
    13    9   19 1   
    14   11   12 1   
    15   11   17 1   
    16   11   18 1   
    17   12   13 1   
    18   12   14 1   
    19   19   20 1   
    20   19   24 1   
    21   20   21 1   
    22   20   23 1   
    23   20   25 1   
    24   21   22 2   
    25   21   29 1   
    26   23   26 1   
    27   23   27 1   
    28   23   28 1   
    29   29   30 1   
    30   29   37 1   
    31   30   31 1   
    32   30   33 1   
    33   30   38 1   
    34   31   32 2   
    35   31   41 1   
    36   33   34 1   
    37   33   39 1   
    38   33   40 1   
    39   34   35 1   
    40   34   36 1   
    41   41   42 1   
    42   41   45 1   
    43   42   43 1   
    44   42   46 1   
    45   42   47 1   
    46   43   44 2   
    47   43   48 1   
    48   48   49 1   
    49   48   56 1   
    50   49   50 1   
    51   49   52 1   
    52   49   57 1   
    53   50   51 2   
    54   50   62 1   
    55   52   53 1   
    56   52   58 1   
    57   52   59 1   
    58   53   54 1   
    59   53   55 2   
    60   54   60 1   
    61   54   61 1   
    62   62   63 1   
    63   62   66 1   
    64   63   64 1   
    65   63   67 1   
    66   63   68 1   
    67   64   65 2   
    68   64   69 1   
    69   69   70 1   
    70   69   76 1   
    71   70   71 1   
    72   70   73 1   
    73   70   77 1   
    74   71   72 2   
    75   71   83 1   
    76   73   74 1   
    77   73   75 1   
    78   73   78 1   
    79   74   80 1   
    80   74   81 1   
    81   74   82 1   
    82   75   79 1   
    83   83   84 1   
    84   83   91 1   
    85   84   85 1   
    86   84   87 1   
    87   84   92 1   
    88   85   86 2   
    89   85  102 1   
    90   87   88 1   
    91   87   89 1   
    92   87   93 1   
    93   88   90 1   
    94   88   94 1   
    95   88   95 1   
    96   89   96 1   
    97   89   97 1   
    98   89   98 1   
    99   90   99 1   
   100   90  100 1   
   101   90  101 1   
   102  102  103 1   
   103  102  110 1   
   104  103  104 1   
   105  103  106 1   
   106  103  111 1   
   107  104  105 2   
   108  104  114 1   
   109  106  107 1   
   110  106  112 1   
   111  106  113 1   
   112  107  108 1   
   113  107  109 1   
   114  114  115 1   
   115  114  125 1   
   116  115  116 1   
   117  115  118 1   
   118  115  126 1   
   119  116  117 2   
   120  116  134 1   
   121  118  119 1   
   122  118  127 1   
   123  118  128 1   
   124  119  120 ar  
   125  119  121 ar  
   126  120  122 ar  
   127  120  129 1   
   128  121  123 ar  
   129  121  130 1   
   130  122  124 ar  
   131  122  131 1   
   132  123  124 ar  
   133  123  132 1   
   134  124  133 1   
   135  134  135 1   
   136  134  140 1   
   137  135  136 1   
   138  135  138 1   
   139  135  141 1   
   140  136  137 2   
   141  136  148 1   
   142  138  139 1   
   143  138  142 1   
   144  138  143 1   
   145  139  140 1   
   146  139  144 1   
   147  139  145 1   
   148  140  146 1   
   149  140  147 1   
   150  148  149 1   
   151  148  157 1   
   152  149  150 1   
   153  149  152 1   
   154  149  158 1   
   155  150  151 2   
   156  150  163 1   
   157  152  153 1   
   158  152  159 1   
   159  152  160 1   
   160  153  154 1   
   161  153  161 1   
   162  153  162 1   
   163  154  155 1   
   164  154  156 1   
   165  163  164 1   
   166  163  168 1   
   167  164  165 1   
   168  164  166 1   
   169  164  167 1   
   170  170  171 1   
   171  170  172 1   
   172  173  174 1   
   173  173  175 1   
@<TRIPOS>SUBSTRUCTURE
     1 MOL         1 TEMP              0 ****  ****    0 ROOT
