@<TRIPOS>MOLECULE
MOL
  189   185     1     0     0
SMALL
resp


@<TRIPOS>ATOM
      1 C1          0.0820    2.8270    5.4780 c3        1 MOL     -0.336848
      2 C2         -0.2310    2.4210    4.0310 c         1 MOL      0.637651
      3 O1          0.5980    2.7560    3.2180 o         1 MOL     -0.561138
      4 H1         -0.6860    3.5120    5.8370 hc        1 MOL      0.084572
      5 H2          0.1000    1.9380    6.1090 hc        1 MOL      0.084572
      6 H3          1.0540    3.3200    5.5160 hc        1 MOL      0.084572
      7 N1         -1.4510    1.9810    3.8250 n         1 MOL     -0.492709
      8 C3         -2.0850    1.6150    2.5610 c3        1 MOL      0.074772
      9 C4         -2.6300    2.9910    1.9990 c         1 MOL      0.429949
     10 O2         -3.7600    3.5110    2.0980 o         1 MOL     -0.474646
     11 C5         -3.2050    0.6560    2.8100 c3        1 MOL     -0.192246
     12 C6         -4.0490    0.3540    1.5220 c         1 MOL      0.680402
     13 O3         -3.4570    0.6870    0.4740 o         1 MOL     -0.631003
     14 O4         -5.1570   -0.2700    1.6750 o         1 MOL     -0.631003
     15 H4         -2.0190    1.8100    4.6390 hn        1 MOL      0.308110
     16 H5         -1.4140    1.1100    1.8700 h1        1 MOL      0.049134
     17 H6         -3.9180    1.0970    3.4980 hc        1 MOL      0.051146
     18 H7         -2.8640   -0.2420    3.3280 hc        1 MOL      0.051146
     19 N2         -1.5740    3.6760    1.4380 n         1 MOL     -0.241485
     20 C7         -1.6050    5.0380    0.9410 c3        1 MOL     -0.013362
     21 C8         -2.4510    5.3080   -0.2700 c         1 MOL      0.482718
     22 O5         -2.6740    6.4980   -0.5720 o         1 MOL     -0.560981
     23 C9         -0.2400    5.6970    0.8200 c3        1 MOL     -0.063966
     24 C10        -0.0990    7.2070    1.3670 c3        1 MOL      0.059854
     25 C11         1.2830    7.8040    0.9640 c3        1 MOL     -0.163039
     26 C12         1.4420    9.2800    1.1730 c3        1 MOL      0.192033
     27 N3          2.7420    9.7280    0.6320 n4        1 MOL     -0.349301
     28 H8         -0.7080    3.1590    1.4990 hn        1 MOL      0.255649
     29 H9         -2.1340    5.5500    1.7540 h1        1 MOL      0.052115
     30 H10         0.1770    5.6510   -0.1790 hc        1 MOL      0.045276
     31 H11         0.3880    5.0760    1.4610 hc        1 MOL      0.045276
     32 H12        -0.3180    7.2530    2.4360 hc        1 MOL      0.019132
     33 H13        -0.8240    7.8680    0.8820 hc        1 MOL      0.019132
     34 H14         1.3820    7.6060   -0.1030 hc        1 MOL      0.053410
     35 H15         2.0300    7.2410    1.5280 hc        1 MOL      0.053410
     36 H16         1.3660    9.5380    2.2270 hx        1 MOL      0.050355
     37 H17         0.6690    9.9070    0.7130 hx        1 MOL      0.050355
     38 H18         2.9400   10.7010    0.8300 hn        1 MOL      0.312056
     39 H19         3.5190    9.3380    1.1520 hn        1 MOL      0.312056
     40 H20         2.9700    9.5710   -0.3350 hn        1 MOL      0.312056
     41 N4         -2.8510    4.2370   -1.0190 n         1 MOL     -0.200749
     42 C13        -3.7220    4.2840   -2.1500 c3        1 MOL      0.000945
     43 C14        -5.0090    3.4420   -2.0700 c         1 MOL      0.361896
     44 O6         -5.7850    3.4500   -3.0240 o         1 MOL     -0.480637
     45 C15        -2.8470    4.0370   -3.3830 c3        1 MOL     -0.054770
     46 C16        -2.2670    2.6770   -3.5430 c         1 MOL      0.815188
     47 O7         -2.6420    1.7240   -2.7960 o         1 MOL     -0.705077
     48 O8         -1.5050    2.4640   -4.5150 o         1 MOL     -0.705077
     49 H21        -2.6660    3.3000   -0.6660 hn        1 MOL      0.061462
     50 H22        -4.0250    5.3280   -2.1720 h1        1 MOL      0.067892
     51 H23        -1.9640    4.6640   -3.3530 hc        1 MOL      0.003398
     52 H24        -3.4040    4.3910   -4.2560 hc        1 MOL      0.003398
     53 N5         -5.2380    2.7820   -0.9280 n         1 MOL      0.059246
     54 C17        -6.5500    2.2510   -0.4930 c3        1 MOL     -0.291394
     55 C18        -7.0750    1.1310   -1.3920 c         1 MOL      0.616619
     56 O9         -7.7920    1.3820   -2.3670 o         1 MOL     -0.531803
     57 H25        -4.4830    2.7720   -0.2520 hn        1 MOL      0.026999
     58 H26        -7.2820    3.0470   -0.3930 h1        1 MOL      0.108474
     59 H27        -6.3590    1.7870    0.4770 h1        1 MOL      0.108474
     60 N6         -6.6120   -0.0820   -1.0010 n         1 MOL     -0.282521
     61 C19        -7.0130   -1.3300   -1.6840 c3        1 MOL     -0.212196
     62 C20        -7.1200   -2.6280   -0.7580 c         1 MOL      0.614834
     63 O10        -7.2790   -3.7660   -1.1980 o         1 MOL     -0.534418
     64 C21        -6.0470   -1.6570   -2.9030 c3        1 MOL      0.074345
     65 C22        -4.5710   -1.4700   -2.5130 c         1 MOL      0.750696
     66 O11        -3.7360   -0.9840   -3.2920 o         1 MOL     -0.716975
     67 O12        -4.1590   -1.7870   -1.3740 o         1 MOL     -0.716975
     68 H28        -6.0060   -0.1730   -0.2000 hn        1 MOL      0.012298
     69 H29        -8.0020   -1.1960   -2.1300 h1        1 MOL      0.107254
     70 H30        -6.1730   -1.0900   -3.8340 hc        1 MOL      0.003744
     71 H31        -6.1060   -2.6730   -3.2740 hc        1 MOL      0.003744
     72 N7         -7.0340   -2.4340    0.5850 n         1 MOL     -0.477077
     73 C23        -7.0310   -3.5880    1.5310 c3        1 MOL     -0.123735
     74 C24        -5.7040   -4.3270    1.6550 c         1 MOL      0.528292
     75 O13        -5.5300   -5.2040    2.4950 o         1 MOL     -0.577361
     76 H32        -6.7360   -1.5700    1.0180 hn        1 MOL      0.383031
     77 H33        -7.6300   -4.3730    1.0550 h1        1 MOL      0.106152
     78 H34        -7.4510   -3.2790    2.4900 h1        1 MOL      0.106152
     79 N8         -4.6430   -3.8940    0.9350 n         1 MOL     -0.192004
     80 C25        -3.3850   -4.5710    0.7480 c3        1 MOL     -0.255091
     81 C26        -2.1350   -3.6160    0.8350 c         1 MOL      0.679880
     82 O14        -2.2700   -2.4710    0.5110 o         1 MOL     -0.600396
     83 C27        -3.3700   -5.3720   -0.5570 c3        1 MOL      0.470192
     84 C28        -4.6470   -6.3150   -0.5600 c3        1 MOL     -0.418205
     85 O15        -3.4960   -4.5460   -1.7260 oh        1 MOL     -0.614168
     86 H35        -4.9280   -3.1850    0.2740 hn        1 MOL      0.218020
     87 H36        -3.2940   -5.3250    1.5310 h1        1 MOL      0.107780
     88 H37        -2.4880   -6.0050   -0.6640 h1        1 MOL     -0.020497
     89 H38        -3.7370   -3.6450   -1.4730 ho        1 MOL      0.364322
     90 H39        -4.4430   -6.9440   -1.4230 hc        1 MOL      0.101272
     91 H40        -4.7240   -6.9900    0.2950 hc        1 MOL      0.101272
     92 H41        -5.5790   -5.7670   -0.7530 hc        1 MOL      0.101272
     93 N9         -1.0310   -4.0900    1.3220 n         1 MOL     -0.656557
     94 C29         0.2010   -3.3350    1.4670 c3        1 MOL      0.364997
     95 C30         1.3780   -3.8050    0.5690 c         1 MOL      0.442437
     96 O16         1.6030   -4.9990    0.3970 o         1 MOL     -0.554319
     97 C31         0.5020   -3.3860    2.9770 c3        1 MOL     -0.014833
     98 C32        -0.4460   -2.3000    3.5900 c3        1 MOL      0.182342
     99 C33         2.0270   -3.1920    3.3700 c3        1 MOL     -0.244174
    100 C34        -0.4410   -2.2770    5.1210 c3        1 MOL     -0.296736
    101 H42        -0.9890   -5.0250    1.6860 hn        1 MOL      0.287010
    102 H43        -0.0600   -2.3140    1.1710 h1        1 MOL     -0.055541
    103 H44         0.2430   -4.3980    3.3140 hc        1 MOL      0.032048
    104 H45        -1.4930   -2.4270    3.3140 hc        1 MOL      0.025140
    105 H46        -0.0680   -1.3130    3.3320 hc        1 MOL      0.025140
    106 H47         2.2500   -3.4080    4.4090 hc        1 MOL      0.044464
    107 H48         2.6740   -3.7430    2.6780 hc        1 MOL      0.044464
    108 H49         2.2390   -2.1230    3.3120 hc        1 MOL      0.044464
    109 H50        -0.7460   -3.2890    5.3920 hc        1 MOL      0.055294
    110 H51         0.5750   -2.0110    5.4210 hc        1 MOL      0.055294
    111 H52        -1.1330   -1.5060    5.4300 hc        1 MOL      0.055294
    112 N10         2.0450   -2.8300   -0.0510 n         1 MOL     -0.180911
    113 C35         3.1930   -3.0730   -0.8400 c3        1 MOL      0.040938
    114 C36         4.5150   -3.0680   -0.0470 c         1 MOL      0.408481
    115 O17         4.6860   -2.7590    1.1370 o         1 MOL     -0.397000
    116 C37         3.2750   -2.0830   -1.9760 c3        1 MOL      0.207138
    117 C38         2.1410   -2.2390   -2.9950 c3        1 MOL     -0.107028
    118 O18         3.4800   -0.7970   -1.6200 oh        1 MOL     -0.374957
    119 H53         1.7750   -1.8580    0.0360 hn        1 MOL      0.174401
    120 H54         3.1160   -4.0710   -1.2770 h1        1 MOL      0.053624
    121 H55         4.1310   -2.3390   -2.5940 h1        1 MOL     -0.075417
    122 H56         3.6390   -0.3610   -2.4590 ho        1 MOL      0.359137
    123 H57         1.1970   -2.5630   -2.5810 hc        1 MOL      0.025471
    124 H58         2.0160   -1.3280   -3.5840 hc        1 MOL      0.025471
    125 H59         2.3990   -3.0560   -3.6670 hc        1 MOL      0.025471
    126 N11         5.5630   -3.2660   -0.8010 n         1 MOL     -0.372998
    127 C39         6.9130   -2.9570   -0.2870 c3        1 MOL     -0.041266
    128 C40         7.1250   -1.5000    0.0670 c         1 MOL      0.152828
    129 O19         7.8730   -1.2050    0.9790 o         1 MOL     -0.468505
    130 C41         7.9950   -3.1660   -1.3720 c3        1 MOL      0.146124
    131 C42         7.9640   -4.6510   -1.8060 c3        1 MOL     -0.353516
    132 O20         7.5970   -2.3690   -2.4960 oh        1 MOL     -0.616239
    133 H60         5.5070   -3.6530   -1.7350 hn        1 MOL      0.281997
    134 H61         7.1170   -3.6080    0.5590 h1        1 MOL      0.142186
    135 H62         9.0130   -2.9210   -1.0640 h1        1 MOL      0.096476
    136 H63         8.2370   -2.4850   -3.2020 ho        1 MOL      0.400768
    137 H64         8.2310   -5.3080   -0.9840 hc        1 MOL      0.107900
    138 H65         7.0320   -5.0290   -2.2190 hc        1 MOL      0.107900
    139 H66         8.7630   -4.8100   -2.5350 hc        1 MOL      0.107900
    140 N12         6.3430   -0.6290   -0.6020 n         1 MOL      0.477118
    141 C43         6.4890    0.7670   -0.3440 c3        1 MOL     -0.018417
    142 C44         5.9130    1.2150    1.0060 c         1 MOL      0.283232
    143 O21         6.5990    1.6720    1.9120 o         1 MOL     -0.480093
    144 C45         5.9940    1.5840   -1.5670 c3        1 MOL     -0.071025
    145 C46         6.5390    1.0890   -2.9610 c3        1 MOL     -0.192562
    146 C47         8.1130    1.0650   -3.0010 c3        1 MOL      0.108044
    147 C48         8.5120    0.8960   -4.5300 c3        1 MOL      0.033582
    148 N13         9.8670    1.4350   -4.8630 n4        1 MOL     -0.336759
    149 H67         5.7830   -0.9590   -1.3800 hn        1 MOL      0.078618
    150 H68         7.5570    0.9640   -0.2230 h1        1 MOL     -0.001014
    151 H69         6.1770    2.6530   -1.4990 hc        1 MOL      0.069624
    152 H70         4.9010    1.6000   -1.5930 hc        1 MOL      0.069624
    153 H71         6.2120    1.7900   -3.7240 hc        1 MOL      0.041422
    154 H72         6.2390    0.0580   -3.1650 hc        1 MOL      0.041422
    155 H73         8.4590    0.2340   -2.3900 hc        1 MOL     -0.004944
    156 H74         8.6240    1.9290   -2.5670 hc        1 MOL     -0.004944
    157 H75         7.8790    1.5380   -5.1500 hx        1 MOL      0.065073
    158 H76         8.3290   -0.1350   -4.8390 hx        1 MOL      0.065073
    159 H77        10.5910    0.9810   -4.3310 hn        1 MOL      0.277115
    160 H78        10.0040    1.2800   -5.8510 hn        1 MOL      0.277115
    161 H79         9.8390    2.4210   -4.6530 hn        1 MOL      0.277115
    162 N14         4.6550    0.8190    1.1100 n         1 MOL      0.119277
    163 C49         3.7820    0.9630    2.2170 c3        1 MOL     -0.071572
    164 C50         4.3190    0.2470    3.5190 c         1 MOL      0.381932
    165 O22         4.2590    0.8350    4.5700 o         1 MOL     -0.521051
    166 C51         2.3940    0.3870    1.7680 c3        1 MOL      0.024537
    167 C52         1.8780    1.2020    0.5580 c3        1 MOL     -0.129430
    168 C53         0.5820    0.7120   -0.0770 c         1 MOL      0.593540
    169 O23         0.2420   -0.4980   -0.0900 o         1 MOL     -0.708465
    170 O24        -0.1960    1.5130   -0.6750 o         1 MOL     -0.708465
    171 H80         4.3160    0.2830    0.3140 hn        1 MOL     -0.380578
    172 H81         3.5320    1.9930    2.4960 h1        1 MOL      0.067613
    173 H82         1.7420    0.4410    2.6370 hc        1 MOL      0.052026
    174 H83         2.5040   -0.6680    1.5150 hc        1 MOL      0.052026
    175 H84         2.6630    1.4400   -0.1640 hc        1 MOL      0.053036
    176 H85         1.6670    2.2300    0.8610 hc        1 MOL      0.053036
    177 N15         4.8800   -0.9600    3.3420 n         1 MOL      0.031898
    178 C54         5.5690   -1.7560    4.3370 c3        1 MOL     -0.303717
    179 H86         6.2410   -1.1180    4.9110 h1        1 MOL      0.100672
    180 H87         4.8400   -2.2110    5.0070 h1        1 MOL      0.100672
    181 H88         6.1460   -2.5370    3.8420 h1        1 MOL      0.100672
    182 H89         4.8760   -1.4660    2.4700 hn        1 MOL      0.136184
    183 Ca1        -1.8960   -0.3610   -1.3740 Ca        1 MOL      1.802602
    184 O25        -1.2460   -2.7470   -2.4340 oh        1 MOL     -0.827478
    185 H90        -1.0650   -2.7950   -3.3780 ho        1 MOL      0.386222
    186 H91        -1.6610   -3.5830   -2.2380 ho        1 MOL      0.386222
    187 O26        -0.3060    0.0600   -3.4680 oh        1 MOL     -0.827478
    188 H92         0.2470   -0.4300   -4.0810 ho        1 MOL      0.386222
    189 H93        -0.6980    0.7510   -4.0010 ho        1 MOL      0.386222
@<TRIPOS>BOND
     1    1    2 1   
     2    1    4 1   
     3    1    5 1   
     4    1    6 1   
     5    2    3 2   
     6    2    7 1   
     7    7    8 1   
     8    7   15 1   
     9    8    9 1   
    10    8   11 1   
    11    8   16 1   
    12    9   10 2   
    13    9   19 1   
    14   11   12 1   
    15   11   17 1   
    16   11   18 1   
    17   12   13 1   
    18   12   14 1   
    19   19   20 1   
    20   19   28 1   
    21   20   21 1   
    22   20   23 1   
    23   20   29 1   
    24   21   22 2   
    25   21   41 1   
    26   23   24 1   
    27   23   30 1   
    28   23   31 1   
    29   24   25 1   
    30   24   32 1   
    31   24   33 1   
    32   25   26 1   
    33   25   34 1   
    34   25   35 1   
    35   26   27 1   
    36   26   36 1   
    37   26   37 1   
    38   27   38 1   
    39   27   39 1   
    40   27   40 1   
    41   41   42 1   
    42   41   49 1   
    43   42   43 1   
    44   42   45 1   
    45   42   50 1   
    46   43   44 2   
    47   43   53 1   
    48   45   46 1   
    49   45   51 1   
    50   45   52 1   
    51   46   47 1   
    52   46   48 1   
    53   53   54 1   
    54   53   57 1   
    55   54   55 1   
    56   54   58 1   
    57   54   59 1   
    58   55   56 2   
    59   55   60 1   
    60   60   61 1   
    61   60   68 1   
    62   61   62 1   
    63   61   64 1   
    64   61   69 1   
    65   62   63 2   
    66   62   72 1   
    67   64   65 1   
    68   64   70 1   
    69   64   71 1   
    70   65   66 1   
    71   65   67 1   
    72   72   73 1   
    73   72   76 1   
    74   73   74 1   
    75   73   77 1   
    76   73   78 1   
    77   74   75 2   
    78   74   79 1   
    79   79   80 1   
    80   79   86 1   
    81   80   81 1   
    82   80   83 1   
    83   80   87 1   
    84   81   82 2   
    85   81   93 1   
    86   83   84 1   
    87   83   85 1   
    88   83   88 1   
    89   84   90 1   
    90   84   91 1   
    91   84   92 1   
    92   85   89 1   
    93   93   94 1   
    94   93  101 1   
    95   94   95 1   
    96   94   97 1   
    97   94  102 1   
    98   95   96 2   
    99   95  112 1   
   100   97   98 1   
   101   97   99 1   
   102   97  103 1   
   103   98  100 1   
   104   98  104 1   
   105   98  105 1   
   106   99  106 1   
   107   99  107 1   
   108   99  108 1   
   109  100  109 1   
   110  100  110 1   
   111  100  111 1   
   112  112  113 1   
   113  112  119 1   
   114  113  114 1   
   115  113  116 1   
   116  113  120 1   
   117  114  115 2   
   118  114  126 1   
   119  116  117 1   
   120  116  118 1   
   121  116  121 1   
   122  117  123 1   
   123  117  124 1   
   124  117  125 1   
   125  118  122 1   
   126  126  127 1   
   127  126  133 1   
   128  127  128 1   
   129  127  130 1   
   130  127  134 1   
   131  128  129 2   
   132  128  140 1   
   133  130  131 1   
   134  130  132 1   
   135  130  135 1   
   136  131  137 1   
   137  131  138 1   
   138  131  139 1   
   139  132  136 1   
   140  140  141 1   
   141  140  149 1   
   142  141  142 1   
   143  141  144 1   
   144  141  150 1   
   145  142  143 2   
   146  142  162 1   
   147  144  145 1   
   148  144  151 1   
   149  144  152 1   
   150  145  146 1   
   151  145  153 1   
   152  145  154 1   
   153  146  147 1   
   154  146  155 1   
   155  146  156 1   
   156  147  148 1   
   157  147  157 1   
   158  147  158 1   
   159  148  159 1   
   160  148  160 1   
   161  148  161 1   
   162  162  163 1   
   163  162  171 1   
   164  163  164 1   
   165  163  166 1   
   166  163  172 1   
   167  164  165 2   
   168  164  177 1   
   169  166  167 1   
   170  166  173 1   
   171  166  174 1   
   172  167  168 1   
   173  167  175 1   
   174  167  176 1   
   175  168  169 1   
   176  168  170 1   
   177  177  178 1   
   178  177  182 1   
   179  178  179 1   
   180  178  180 1   
   181  178  181 1   
   182  184  185 1   
   183  184  186 1   
   184  187  188 1   
   185  187  189 1   
@<TRIPOS>SUBSTRUCTURE
     1 MOL         1 TEMP              0 ****  ****    0 ROOT
