@<TRIPOS>MOLECULE
MOL
  172   171     1     0     0
SMALL
resp


@<TRIPOS>ATOM
      1 C1          0.0830    4.6120    5.3360 c3        1 MOL     -0.416559
      2 C2         -0.5230    4.2100    3.9650 c         1 MOL      0.686605
      3 O1          0.2470    4.3030    2.9620 o         1 MOL     -0.532194
      4 H1          0.5730    5.5810    5.2470 hc        1 MOL      0.101703
      5 H2         -0.7100    4.6740    6.0810 hc        1 MOL      0.101703
      6 H3          0.8140    3.8640    5.6450 hc        1 MOL      0.101703
      7 N1         -1.8200    3.8090    3.8860 n         1 MOL     -0.633807
      8 C3         -2.4900    3.5980    2.6210 c3        1 MOL      0.324650
      9 C4         -2.5090    4.7790    1.6660 c         1 MOL      0.484450
     10 O2         -2.6490    5.8990    2.1620 o         1 MOL     -0.602212
     11 C5         -3.8580    2.8210    2.7830 c3        1 MOL     -0.196572
     12 C6         -4.3750    2.3410    1.4180 c         1 MOL      0.602087
     13 O3         -5.6070    2.5260    1.2160 o         1 MOL     -0.614759
     14 O4         -3.5790    1.8040    0.5590 o         1 MOL     -0.614759
     15 H4         -2.3050    3.7420    4.7680 hn        1 MOL      0.323029
     16 H5         -1.9420    2.8170    2.0870 h1        1 MOL     -0.037654
     17 H6         -4.4810    3.5530    3.2940 hc        1 MOL      0.021161
     18 H7         -3.7720    1.9620    3.4510 hc        1 MOL      0.021161
     19 N2         -2.4220    4.6070    0.4210 n         1 MOL     -0.346168
     20 C7         -2.8250    5.5530   -0.5440 c3        1 MOL      0.330712
     21 C8         -3.7770    5.0420   -1.6300 c         1 MOL      0.417121
     22 O5         -4.3120    5.8680   -2.3620 o         1 MOL     -0.583295
     23 C9         -1.5090    6.1910   -1.0630 c3        1 MOL     -0.324008
     24 H8         -2.1270    3.7200    0.0380 hn        1 MOL      0.316410
     25 H9         -3.3700    6.3520   -0.0380 h1        1 MOL     -0.005269
     26 H10        -0.9660    5.3750   -1.5400 hc        1 MOL      0.075220
     27 H11        -1.7330    6.9900   -1.7620 hc        1 MOL      0.075220
     28 H12        -0.8970    6.5620   -0.2400 hc        1 MOL      0.075220
     29 N3         -4.0070    3.7110   -1.7710 n         1 MOL     -0.171500
     30 C10        -4.6100    3.0900   -2.9780 c3        1 MOL      0.037269
     31 C11        -5.8450    2.2550   -2.6990 c         1 MOL      0.358459
     32 O6         -6.4610    1.9390   -3.6760 o         1 MOL     -0.536640
     33 C12        -3.5310    2.2650   -3.6330 c3        1 MOL     -0.098484
     34 C13        -2.9630    1.2510   -2.7540 c         1 MOL      0.716662
     35 O7         -1.7070    1.1880   -2.5790 o         1 MOL     -0.730701
     36 O8         -3.6280    0.4460   -2.0840 o         1 MOL     -0.730701
     37 H13        -3.7520    3.2200   -0.9250 hn        1 MOL      0.011063
     38 H14        -4.8380    3.8970   -3.6760 h1        1 MOL      0.097043
     39 H15        -2.7390    2.9310   -3.9720 hc        1 MOL      0.030370
     40 H16        -3.9770    1.8230   -4.5230 hc        1 MOL      0.030370
     41 N4         -6.1870    1.8570   -1.4600 n         1 MOL     -0.093418
     42 C14        -7.3490    1.1110   -1.0320 c3        1 MOL     -0.275479
     43 C15        -7.3780   -0.4150   -1.2160 c         1 MOL      0.566748
     44 O9         -8.3920   -1.0080   -0.9580 o         1 MOL     -0.604237
     45 H17        -5.7180    2.2810   -0.6740 hn        1 MOL      0.157587
     46 H18        -8.1320    1.4340   -1.7230 h1        1 MOL      0.114588
     47 H19        -7.6730    1.2860   -0.0080 h1        1 MOL      0.114588
     48 N5         -6.2840   -0.9650   -1.7180 n         1 MOL     -0.232270
     49 C16        -6.2660   -2.3840   -2.0520 c3        1 MOL      0.042905
     50 C17        -6.3150   -3.3690   -0.8890 c         1 MOL      0.354041
     51 O10        -6.5170   -4.6040   -1.1100 o         1 MOL     -0.522952
     52 C18        -5.1210   -2.4730   -3.0640 c3        1 MOL     -0.209127
     53 C19        -3.7240   -2.5210   -2.3790 c         1 MOL      0.710984
     54 N6         -2.7170   -2.4050   -3.2700 n         1 MOL     -0.701554
     55 O11        -3.4730   -2.5850   -1.1490 o         1 MOL     -0.509602
     56 H20        -5.4590   -0.4230   -1.9530 hn        1 MOL      0.130892
     57 H21        -7.2050   -2.5280   -2.6000 h1        1 MOL      0.096898
     58 H22        -5.1800   -1.6210   -3.7350 hc        1 MOL      0.072222
     59 H23        -5.2270   -3.3500   -3.7000 hc        1 MOL      0.072222
     60 H24        -2.8990   -2.3710   -4.2660 hn        1 MOL      0.338118
     61 H25        -1.7880   -2.2360   -2.9300 hn        1 MOL      0.338118
     62 N7         -6.1230   -3.0010    0.3980 n         1 MOL     -0.152450
     63 C20        -6.1850   -3.9400    1.5170 c3        1 MOL     -0.404969
     64 C21        -4.8640   -4.3660    2.2100 c         1 MOL      0.492267
     65 O12        -4.8870   -5.1030    3.2000 o         1 MOL     -0.557354
     66 H26        -6.0890   -2.0200    0.6160 hn        1 MOL      0.246669
     67 H27        -6.6300   -4.9000    1.2500 h1        1 MOL      0.175247
     68 H28        -6.7240   -3.3040    2.2140 h1        1 MOL      0.175247
     69 N8         -3.7460   -3.8650    1.6330 n         1 MOL     -0.081321
     70 C22        -2.4540   -4.4060    1.8200 c3        1 MOL     -0.511085
     71 C23        -1.3590   -3.3660    1.7330 c         1 MOL      0.716608
     72 O13        -1.4670   -2.4830    0.8970 o         1 MOL     -0.526967
     73 C24        -2.2830   -5.5170    0.7590 c3        1 MOL      0.684943
     74 C25        -3.2290   -6.7030    0.9120 c3        1 MOL     -0.521252
     75 O14        -2.4480   -5.0890   -0.5730 oh        1 MOL     -0.627950
     76 H29        -3.8630   -3.1740    0.8960 hn        1 MOL      0.248091
     77 H30        -2.5660   -4.8780    2.7960 h1        1 MOL      0.134363
     78 H31        -1.2890   -5.9530    0.9020 h1        1 MOL     -0.058159
     79 H32        -2.6530   -4.1450   -0.5490 ho        1 MOL      0.289163
     80 H33        -2.7560   -7.4280    0.2570 hc        1 MOL      0.121871
     81 H34        -3.0240   -7.0280    1.9310 hc        1 MOL      0.121871
     82 H35        -4.2860   -6.5440    0.6880 hc        1 MOL      0.121871
     83 N9         -0.2670   -3.5470    2.4770 n         1 MOL     -0.563777
     84 C26         0.8510   -2.5880    2.3290 c3        1 MOL     -0.026955
     85 C27         1.6130   -2.9650    1.0370 c         1 MOL      0.555180
     86 O15         1.9440   -4.1510    0.8580 o         1 MOL     -0.578464
     87 C28         1.8340   -2.5090    3.5530 c3        1 MOL      0.319655
     88 C29         1.2130   -1.9330    4.8920 c3        1 MOL     -0.045152
     89 C30         2.9840   -1.5800    3.2590 c3        1 MOL     -0.419047
     90 C31         1.9750   -2.4040    6.1200 c3        1 MOL     -0.045733
     91 H36        -0.1590   -4.3000    3.1370 hn        1 MOL      0.325782
     92 H37         0.4760   -1.5790    2.2070 h1        1 MOL      0.081781
     93 H38         2.2310   -3.5150    3.6540 hc        1 MOL     -0.042869
     94 H39         0.2350   -2.4010    4.9820 hc        1 MOL      0.002484
     95 H40         1.1140   -0.8480    4.8370 hc        1 MOL      0.002484
     96 H41         3.6790   -2.0860    2.5900 hc        1 MOL      0.073078
     97 H42         2.6950   -0.6710    2.7370 hc        1 MOL      0.073078
     98 H43         3.5690   -1.2660    4.1270 hc        1 MOL      0.073078
     99 H44         1.5640   -1.9860    7.0480 hc        1 MOL      0.004384
    100 H45         2.0040   -3.4900    6.2290 hc        1 MOL      0.004384
    101 H46         3.0030   -2.0670    6.0020 hc        1 MOL      0.004384
    102 N10         1.8660   -1.9860    0.1360 n         1 MOL     -0.217016
    103 C32         2.6940   -1.9710   -1.0610 c3        1 MOL      0.067709
    104 C33         4.1570   -1.4640   -0.7550 c         1 MOL      0.361667
    105 O16         4.4350   -0.7870    0.2520 o         1 MOL     -0.260336
    106 C34         1.9830   -1.1640   -2.1800 c3        1 MOL     -0.251355
    107 C35         0.5370   -1.5950   -2.5380 c         1 MOL      0.728219
    108 O17         0.3450   -2.1980   -3.6400 o         1 MOL     -0.672944
    109 O18        -0.4230   -1.3160   -1.8030 o         1 MOL     -0.672944
    110 H47         1.4220   -1.0890    0.2760 hn        1 MOL      0.036140
    111 H48         2.7330   -2.9730   -1.4770 h1        1 MOL      0.072408
    112 H49         2.5820   -1.3430   -3.0770 hc        1 MOL      0.057606
    113 H50         2.0270   -0.0990   -1.9520 hc        1 MOL      0.057606
    114 N11         5.1250   -1.7720   -1.6550 n         1 MOL     -0.631097
    115 C36         6.5240   -1.3760   -1.3900 c3        1 MOL      0.408712
    116 C37         6.8070    0.1670   -1.2260 c         1 MOL      0.157226
    117 O19         7.6140    0.4950   -0.3170 o         1 MOL     -0.473150
    118 C38         7.4570   -1.9690   -2.3730 c3        1 MOL     -0.210338
    119 C39         8.9300   -2.0950   -2.1250 ca        1 MOL      0.215475
    120 C40         9.8210   -1.2630   -2.8220 ca        1 MOL     -0.269576
    121 C41         9.4110   -3.0760   -1.2480 ca        1 MOL     -0.269576
    122 C42        11.1430   -1.1290   -2.3230 ca        1 MOL     -0.065181
    123 C43        10.7420   -2.9360   -0.7590 ca        1 MOL     -0.065181
    124 C44        11.5690   -1.9340   -1.2810 ca        1 MOL     -0.123348
    125 H51         4.8340   -2.1020   -2.5590 hn        1 MOL      0.338362
    126 H52         6.6870   -1.7670   -0.3970 h1        1 MOL      0.042160
    127 H53         7.3230   -1.5070   -3.3500 hc        1 MOL      0.043310
    128 H54         7.1290   -3.0010   -2.4930 hc        1 MOL      0.043310
    129 H55         9.5620   -0.5440   -3.5900 ha        1 MOL      0.153473
    130 H56         8.8060   -3.8750   -0.8630 ha        1 MOL      0.153473
    131 H57        11.7800   -0.3850   -2.7670 ha        1 MOL      0.104330
    132 H58        11.0570   -3.6350    0.0090 ha        1 MOL      0.104330
    133 H59        12.6000   -1.8640   -0.9880 ha        1 MOL      0.089045
    134 N12         6.0790    1.0900   -1.8670 n         1 MOL      0.104021
    135 C45         6.1950    2.4970   -1.5700 c3        1 MOL      0.021997
    136 C46         5.5940    2.9740   -0.2640 c         1 MOL      0.279258
    137 O20         6.1250    3.8680    0.3840 o         1 MOL     -0.478050
    138 C47         5.5620    3.1860   -2.7680 c3        1 MOL      0.086389
    139 C48         5.4290    2.1700   -3.8930 c3        1 MOL     -0.241324
    140 C49         5.3470    0.8260   -3.0850 c3        1 MOL     -0.041826
    141 H60         7.2650    2.7120   -1.5540 h1        1 MOL      0.047632
    142 H61         4.5550    3.5470   -2.5260 hc        1 MOL      0.012808
    143 H62         6.1640    4.0690   -3.0220 hc        1 MOL      0.012808
    144 H63         4.4930    2.3500   -4.4330 hc        1 MOL      0.078293
    145 H64         6.3150    2.1210   -4.5160 hc        1 MOL      0.078293
    146 H65         4.3250    0.6160   -2.7900 h1        1 MOL      0.045962
    147 H66         5.8190   -0.0270   -3.5730 h1        1 MOL      0.045962
    148 N13         4.5170    2.3420    0.1740 n         1 MOL     -0.191494
    149 C50         3.9370    2.5340    1.5250 c3        1 MOL     -0.077961
    150 C51         4.8660    2.0370    2.6210 c         1 MOL      0.400883
    151 O21         5.0550    2.7080    3.6420 o         1 MOL     -0.542195
    152 C52         2.6210    1.7660    1.6750 c3        1 MOL     -0.091126
    153 C53         1.6410    2.2940    0.5650 c3        1 MOL     -0.243093
    154 C54         0.2820    1.7530    0.5730 c         1 MOL      0.886102
    155 O22        -0.7290    2.3540    0.1090 o         1 MOL     -0.813487
    156 O23         0.0890    0.6390    1.1330 o         1 MOL     -0.813487
    157 H67         4.1150    1.5830   -0.3530 hn        1 MOL      0.201643
    158 H68         3.6920    3.5620    1.7720 h1        1 MOL      0.121534
    159 H69         2.2520    1.8360    2.6990 hc        1 MOL      0.131426
    160 H70         2.8210    0.7840    1.2540 hc        1 MOL      0.131426
    161 H71         2.0690    2.0540   -0.4120 hc        1 MOL      0.069259
    162 H72         1.5420    3.3740    0.7010 hc        1 MOL      0.069259
    163 N14         5.5330    0.8660    2.3570 n         1 MOL      0.018939
    164 C55         6.5490    0.2840    3.1870 c3        1 MOL     -0.187240
    165 H73         7.1470    1.0750    3.6380 h1        1 MOL      0.067399
    166 H74         6.0820   -0.3110    3.9720 h1        1 MOL      0.067399
    167 H75         7.1910   -0.3550    2.5810 h1        1 MOL      0.067399
    168 H76         5.2650    0.3920    1.5050 hn        1 MOL      0.016117
    169 Ca1        -2.0930   -0.1170   -0.2890 Ca        1 MOL      1.721284
    170 O24        -3.6020   -0.9520    1.6170 oh        1 MOL     -1.106424
    171 H77        -4.4730   -0.6720    1.9040 ho        1 MOL      0.490926
    172 H78        -3.0100   -0.5790    2.2700 ho        1 MOL      0.490926
@<TRIPOS>BOND
     1    1    2 1   
     2    1    4 1   
     3    1    5 1   
     4    1    6 1   
     5    2    3 2   
     6    2    7 1   
     7    7    8 1   
     8    7   15 1   
     9    8    9 1   
    10    8   11 1   
    11    8   16 1   
    12    9   10 2   
    13    9   19 1   
    14   11   12 1   
    15   11   17 1   
    16   11   18 1   
    17   12   13 1   
    18   12   14 1   
    19   19   20 1   
    20   19   24 1   
    21   20   21 1   
    22   20   23 1   
    23   20   25 1   
    24   21   22 2   
    25   21   29 1   
    26   23   26 1   
    27   23   27 1   
    28   23   28 1   
    29   29   30 1   
    30   29   37 1   
    31   30   31 1   
    32   30   33 1   
    33   30   38 1   
    34   31   32 2   
    35   31   41 1   
    36   33   34 1   
    37   33   39 1   
    38   33   40 1   
    39   34   35 1   
    40   34   36 1   
    41   41   42 1   
    42   41   45 1   
    43   42   43 1   
    44   42   46 1   
    45   42   47 1   
    46   43   44 2   
    47   43   48 1   
    48   48   49 1   
    49   48   56 1   
    50   49   50 1   
    51   49   52 1   
    52   49   57 1   
    53   50   51 2   
    54   50   62 1   
    55   52   53 1   
    56   52   58 1   
    57   52   59 1   
    58   53   54 1   
    59   53   55 2   
    60   54   60 1   
    61   54   61 1   
    62   62   63 1   
    63   62   66 1   
    64   63   64 1   
    65   63   67 1   
    66   63   68 1   
    67   64   65 2   
    68   64   69 1   
    69   69   70 1   
    70   69   76 1   
    71   70   71 1   
    72   70   73 1   
    73   70   77 1   
    74   71   72 2   
    75   71   83 1   
    76   73   74 1   
    77   73   75 1   
    78   73   78 1   
    79   74   80 1   
    80   74   81 1   
    81   74   82 1   
    82   75   79 1   
    83   83   84 1   
    84   83   91 1   
    85   84   85 1   
    86   84   87 1   
    87   84   92 1   
    88   85   86 2   
    89   85  102 1   
    90   87   88 1   
    91   87   89 1   
    92   87   93 1   
    93   88   90 1   
    94   88   94 1   
    95   88   95 1   
    96   89   96 1   
    97   89   97 1   
    98   89   98 1   
    99   90   99 1   
   100   90  100 1   
   101   90  101 1   
   102  102  103 1   
   103  102  110 1   
   104  103  104 1   
   105  103  106 1   
   106  103  111 1   
   107  104  105 2   
   108  104  114 1   
   109  106  107 1   
   110  106  112 1   
   111  106  113 1   
   112  107  108 1   
   113  107  109 1   
   114  114  115 1   
   115  114  125 1   
   116  115  116 1   
   117  115  118 1   
   118  115  126 1   
   119  116  117 2   
   120  116  134 1   
   121  118  119 1   
   122  118  127 1   
   123  118  128 1   
   124  119  120 ar  
   125  119  121 ar  
   126  120  122 ar  
   127  120  129 1   
   128  121  123 ar  
   129  121  130 1   
   130  122  124 ar  
   131  122  131 1   
   132  123  124 ar  
   133  123  132 1   
   134  124  133 1   
   135  134  135 1   
   136  134  140 1   
   137  135  136 1   
   138  135  138 1   
   139  135  141 1   
   140  136  137 2   
   141  136  148 1   
   142  138  139 1   
   143  138  142 1   
   144  138  143 1   
   145  139  140 1   
   146  139  144 1   
   147  139  145 1   
   148  140  146 1   
   149  140  147 1   
   150  148  149 1   
   151  148  157 1   
   152  149  150 1   
   153  149  152 1   
   154  149  158 1   
   155  150  151 2   
   156  150  163 1   
   157  152  153 1   
   158  152  159 1   
   159  152  160 1   
   160  153  154 1   
   161  153  161 1   
   162  153  162 1   
   163  154  155 1   
   164  154  156 1   
   165  163  164 1   
   166  163  168 1   
   167  164  165 1   
   168  164  166 1   
   169  164  167 1   
   170  170  171 1   
   171  170  172 1   
@<TRIPOS>SUBSTRUCTURE
     1 MOL         1 TEMP              0 ****  ****    0 ROOT
