@<TRIPOS>MOLECULE
MOL
  189   185     1     0     0
SMALL
resp


@<TRIPOS>ATOM
      1 C1          0.7890   -4.3490    5.8410 c3        1 MOL     -0.353654
      2 C2          1.5000   -3.7250    4.6510 c         1 MOL      0.756559
      3 O1          1.8030   -2.5100    4.6630 o         1 MOL     -0.633298
      4 H1          1.4880   -4.9780    6.3930 hc        1 MOL      0.085781
      5 H2          0.4150   -3.5620    6.4960 hc        1 MOL      0.085781
      6 H3         -0.0440   -4.9560    5.4890 hc        1 MOL      0.085781
      7 N1          1.8590   -4.5580    3.7000 n         1 MOL     -0.538189
      8 C3          2.4070   -4.0690    2.4110 c3        1 MOL      0.146087
      9 C4          2.4070   -5.1470    1.2510 c         1 MOL      0.455470
     10 O2          2.8390   -6.3060    1.4370 o         1 MOL     -0.546491
     11 C5          3.8790   -3.7460    2.6560 c3        1 MOL     -0.378143
     12 C6          4.6630   -3.2780    1.3800 c         1 MOL      0.831598
     13 O3          5.8890   -3.4220    1.3220 o         1 MOL     -0.708701
     14 O4          4.0600   -2.6830    0.4790 o         1 MOL     -0.708701
     15 H4          1.6640   -5.5470    3.7970 hn        1 MOL      0.299799
     16 H5          1.8450   -3.1910    2.1270 h1        1 MOL      0.066516
     17 H6          4.3310   -4.6480    3.0720 hc        1 MOL      0.080744
     18 H7          3.9210   -2.9280    3.3740 hc        1 MOL      0.080744
     19 N2          2.0330   -4.7570   -0.0050 n         1 MOL     -0.061613
     20 C7          1.7860   -5.6880   -1.1590 c3        1 MOL     -0.478680
     21 C8          2.4350   -5.0790   -2.4130 c         1 MOL      0.768960
     22 O5          2.3090   -5.7680   -3.4040 o         1 MOL     -0.612002
     23 C9          0.2930   -5.9610   -1.3680 c3        1 MOL      0.396412
     24 C10        -0.6090   -4.7060   -1.4570 c3        1 MOL     -0.108100
     25 C11        -0.2170   -6.8970   -0.2000 c3        1 MOL     -0.309253
     26 C12        -2.0610   -4.9600   -1.6960 c3        1 MOL     -0.148693
     27 H8          1.5770   -3.8530   -0.0620 hn        1 MOL     -0.010508
     28 H9          2.2460   -6.6520   -0.9460 h1        1 MOL      0.177634
     29 H10         0.1630   -6.4290   -2.3440 hc        1 MOL     -0.043201
     30 H11        -0.1600   -4.0860   -2.2360 hc        1 MOL      0.068418
     31 H12        -0.5970   -4.1910   -0.4880 hc        1 MOL      0.068418
     32 H13        -0.9830   -7.5300   -0.6380 hc        1 MOL      0.061225
     33 H14         0.5610   -7.5960    0.1010 hc        1 MOL      0.061225
     34 H15        -0.5940   -6.2460    0.5910 hc        1 MOL      0.061225
     35 H16        -2.6760   -4.0670   -1.5650 hc        1 MOL      0.030916
     36 H17        -2.1690   -5.3460   -2.7140 hc        1 MOL      0.030916
     37 H18        -2.4700   -5.6650   -0.9850 hc        1 MOL      0.030916
     38 N3          3.2010   -3.9490   -2.4330 n         1 MOL     -0.560270
     39 C13         3.9000   -3.4320   -3.6480 c3        1 MOL      0.048489
     40 C14         5.3920   -2.9950   -3.3700 c         1 MOL      0.388238
     41 O6          6.1950   -2.8910   -4.2790 o         1 MOL     -0.528469
     42 C15         3.0510   -2.2870   -4.3330 c3        1 MOL     -0.197489
     43 C16         2.5250   -1.2030   -3.3100 c         1 MOL      0.677686
     44 O7          3.1010   -1.0170   -2.1900 o         1 MOL     -0.685304
     45 O8          1.4890   -0.5300   -3.6190 o         1 MOL     -0.685304
     46 H19         3.0610   -3.3230   -1.6510 hn        1 MOL      0.399369
     47 H20         3.9570   -4.1880   -4.4290 h1        1 MOL      0.096577
     48 H21         2.1550   -2.7680   -4.7200 hc        1 MOL      0.063964
     49 H22         3.5190   -1.8580   -5.2210 hc        1 MOL      0.063964
     50 N4          5.7840   -2.7310   -2.0560 n         1 MOL     -0.139993
     51 C17         7.1370   -2.2480   -1.6650 c3        1 MOL     -0.193611
     52 C18         7.4150   -0.7380   -1.8570 c         1 MOL      0.486958
     53 O9          8.6150   -0.3970   -2.0820 o         1 MOL     -0.605880
     54 H23         5.0240   -2.8270   -1.3930 hn        1 MOL      0.066320
     55 H24         7.8480   -2.7890   -2.2910 h1        1 MOL      0.112314
     56 H25         7.2730   -2.4800   -0.6080 h1        1 MOL      0.112314
     57 N5          6.4640    0.1830   -1.7530 n         1 MOL     -0.250903
     58 C19         6.5470    1.6250   -2.1370 c3        1 MOL     -0.053716
     59 C20         6.9240    2.5510   -0.9530 c         1 MOL      0.476041
     60 O10         7.4350    3.6400   -1.2190 o         1 MOL     -0.536439
     61 C21         5.3030    2.0690   -2.8860 c3        1 MOL     -0.102812
     62 C22         4.0400    2.1250   -2.0980 c         1 MOL      0.862123
     63 O11         4.0770    1.6240   -0.9560 o         1 MOL     -0.737441
     64 O12         3.0420    2.6560   -2.4840 o         1 MOL     -0.737441
     65 H26         5.5900   -0.2180   -1.4430 hn        1 MOL      0.249062
     66 H27         7.3710    1.6740   -2.8530 h1        1 MOL      0.126154
     67 H28         5.0780    1.3800   -3.6970 hc        1 MOL      0.021903
     68 H29         5.5120    3.0470   -3.3210 hc        1 MOL      0.021903
     69 N6          6.8030    2.0620    0.3240 n         1 MOL     -0.326064
     70 C23         6.9950    2.8920    1.4640 c3        1 MOL     -0.152224
     71 C24         5.7820    3.8800    1.6540 c         1 MOL      0.371988
     72 O13         5.9170    4.8420    2.4380 o         1 MOL     -0.582083
     73 H30         6.3520    1.1640    0.4030 hn        1 MOL      0.217559
     74 H31         7.8690    3.5230    1.3140 h1        1 MOL      0.108858
     75 H32         7.1860    2.2830    2.3410 h1        1 MOL      0.108858
     76 N7          4.6600    3.6480    1.0040 n         1 MOL     -0.039226
     77 C25         3.4010    4.4040    1.2890 c3        1 MOL      0.052680
     78 C26         2.3090    3.4010    1.6500 c         1 MOL      0.441149
     79 O14         2.5430    2.1860    1.6480 o         1 MOL     -0.608385
     80 C27         2.9770    5.2550    0.1410 c3        1 MOL     -0.274015
     81 C28         4.0400    6.2310   -0.4060 c3        1 MOL     -0.235004
     82 C29         3.4460    7.4670   -1.1300 c         1 MOL      0.706477
     83 N8          4.2060    8.5120   -1.2640 n         1 MOL     -0.830108
     84 O15         2.3170    7.4390   -1.6030 o         1 MOL     -0.562962
     85 H33         4.6820    2.9670    0.2620 hn        1 MOL      0.161386
     86 H34         3.6280    5.0510    2.1440 h1        1 MOL      0.041868
     87 H35         2.1190    5.9020    0.3360 hc        1 MOL      0.126741
     88 H36         2.7460    4.6450   -0.7290 hc        1 MOL      0.126741
     89 H37         4.6060    5.6280   -1.1180 hc        1 MOL      0.087639
     90 H38         4.7770    6.6230    0.2990 hc        1 MOL      0.087639
     91 H39         5.0910    8.4700   -0.7910 hn        1 MOL      0.360760
     92 H40         3.8530    9.3910   -1.6200 hn        1 MOL      0.360760
     93 N9          1.1440    3.8670    1.9380 n         1 MOL     -0.408518
     94 C30         0.0040    2.9980    2.2670 c3        1 MOL      0.086464
     95 C31        -1.1240    3.3860    1.3450 c         1 MOL      0.313795
     96 O16        -1.5760    4.5920    1.4090 o         1 MOL     -0.565882
     97 C32        -0.4350    3.2160    3.7440 c3        1 MOL      0.349643
     98 C33        -1.3960    2.0800    4.2150 c3        1 MOL     -0.337920
     99 C34         0.6440    3.2600    4.8200 c3        1 MOL     -0.337920
    100 H41         1.0140    4.8660    2.0420 hn        1 MOL      0.280046
    101 H42         0.3060    1.9610    2.1260 h1        1 MOL      0.127215
    102 H43        -0.9590    4.1640    3.8040 hc        1 MOL     -0.049562
    103 H44        -2.1740    2.0750    3.4470 hc        1 MOL      0.067799
    104 H45        -0.7280    1.2180    4.2220 hc        1 MOL      0.067799
    105 H46        -1.7820    2.3300    5.2050 hc        1 MOL      0.067799
    106 H47         0.3030    3.2440    5.8480 hc        1 MOL      0.067799
    107 H48         1.4280    2.5580    4.5240 hc        1 MOL      0.067799
    108 H49         1.0920    4.2560    4.7200 hc        1 MOL      0.067799
    109 N10        -1.6640    2.4520    0.6080 n         1 MOL     -0.004211
    110 C35        -2.7900    2.5390   -0.2850 c3        1 MOL     -0.158157
    111 C36        -4.0800    2.4470    0.4920 c         1 MOL      0.344830
    112 O17        -4.0960    1.8680    1.5670 o         1 MOL     -0.304937
    113 C37        -2.6450    1.3360   -1.2750 c3        1 MOL     -0.226076
    114 C38        -3.6010    1.3290   -2.4150 c         1 MOL      0.642847
    115 N11        -3.4390    2.2460   -3.3170 n         1 MOL     -0.713073
    116 O18        -4.6270    0.6340   -2.4870 o         1 MOL     -0.517279
    117 H50        -1.1630    1.5760    0.5790 hn        1 MOL      0.139594
    118 H51        -2.7490    3.4900   -0.8230 h1        1 MOL      0.115484
    119 H52        -2.8020    0.4080   -0.7270 hc        1 MOL      0.131985
    120 H53        -1.6620    1.3170   -1.7470 hc        1 MOL      0.131985
    121 H54        -2.6680    2.8970   -3.2770 hn        1 MOL      0.335477
    122 H55        -4.0540    2.3250   -4.1230 hn        1 MOL      0.335477
    123 N12        -5.2550    2.9520   -0.0130 n         1 MOL     -0.296379
    124 C39        -6.5740    2.6100    0.6130 c3        1 MOL     -0.007699
    125 C40        -6.8710    1.0630    0.7410 c         1 MOL      0.501234
    126 O19        -7.5720    0.6040    1.6650 o         1 MOL     -0.567006
    127 C41        -7.6880    3.3470   -0.1580 c3        1 MOL     -0.080592
    128 C42        -8.0050    2.6920   -1.4370 ca        1 MOL      0.135528
    129 C43        -7.0750    2.8530   -2.4860 ca        1 MOL     -0.274510
    130 C44        -9.2900    2.1750   -1.6280 ca        1 MOL     -0.274510
    131 C45        -7.5230    2.2800   -3.6890 ca        1 MOL     -0.202836
    132 C46        -9.6540    1.5970   -2.8470 ca        1 MOL     -0.202836
    133 C47        -8.7060    1.5740   -3.9110 ca        1 MOL      0.287376
    134 O20        -8.8260    0.9920   -5.1280 oh        1 MOL     -0.554886
    135 H56        -5.2940    3.4340   -0.8920 hn        1 MOL      0.182384
    136 H57        -6.6030    3.0420    1.6080 h1        1 MOL      0.067900
    137 H58        -7.4030    4.3730   -0.4010 hc        1 MOL      0.035776
    138 H59        -8.5990    3.4090    0.4480 hc        1 MOL      0.035776
    139 H60        -6.0780    3.2690   -2.5190 ha        1 MOL      0.183826
    140 H61        -9.9160    2.1260   -0.7470 ha        1 MOL      0.183826
    141 H62        -6.8800    2.2700   -4.5500 ha        1 MOL      0.133465
    142 H63       -10.6490    1.2630   -3.0730 ha        1 MOL      0.133465
    143 H64        -9.5390    0.3400   -5.1420 ho        1 MOL      0.423892
    144 N13        -6.2150    0.1750   -0.0470 n         1 MOL     -0.117540
    145 C48        -6.3130   -1.3370    0.0720 c3        1 MOL     -0.132010
    146 C49        -5.4100   -1.8980    1.1730 c         1 MOL      0.384670
    147 O21        -5.7280   -2.9160    1.7520 o         1 MOL     -0.494938
    148 C50        -6.1690   -2.0900   -1.3050 c3        1 MOL     -0.046353
    149 C51        -7.4120   -1.9750   -2.1790 c3        1 MOL     -0.095671
    150 C52        -8.6190   -2.5080   -1.3680 c         1 MOL      0.630432
    151 O22        -9.6400   -1.7800   -1.4010 o         1 MOL     -0.704572
    152 O23        -8.6340   -3.6750   -0.8560 o         1 MOL     -0.704572
    153 H65        -5.6470    0.5280   -0.7960 hn        1 MOL      0.184718
    154 H66        -7.3100   -1.5120    0.4680 h1        1 MOL      0.165752
    155 H67        -6.1090   -3.1370   -1.0260 hc        1 MOL      0.016918
    156 H68        -5.2880   -1.6880   -1.8010 hc        1 MOL      0.016918
    157 H69        -7.3510   -2.5170   -3.1250 hc        1 MOL      0.014153
    158 H70        -7.4940   -0.9100   -2.3630 hc        1 MOL      0.014153
    159 N14        -4.3020   -1.2350    1.4970 n         1 MOL     -0.040958
    160 C53        -3.4600   -1.6910    2.6460 c3        1 MOL     -0.083543
    161 C54        -3.8490   -1.1460    3.9360 c         1 MOL      0.411975
    162 O24        -3.7980   -1.8120    4.9870 o         1 MOL     -0.564788
    163 C55        -2.0520   -1.2670    2.3420 c3        1 MOL     -0.027026
    164 C56        -1.4730   -1.9810    1.0390 c3        1 MOL     -0.116141
    165 C57        -0.1710   -1.2520    0.6190 c         1 MOL      0.798361
    166 O25         0.8380   -1.9610    0.3240 o         1 MOL     -0.749941
    167 O26        -0.0630   -0.0410    0.4440 o         1 MOL     -0.749941
    168 H71        -4.0480   -0.3800    1.0090 hn        1 MOL      0.029857
    169 H72        -3.5670   -2.7690    2.7140 h1        1 MOL      0.098672
    170 H73        -1.3350   -1.4710    3.1360 hc        1 MOL      0.028101
    171 H74        -2.0330   -0.1900    2.1460 hc        1 MOL      0.028101
    172 H75        -2.2010   -1.8910    0.2260 hc        1 MOL      0.042079
    173 H76        -1.2520   -3.0380    1.1330 hc        1 MOL      0.042079
    174 N15        -4.3960    0.0700    3.9230 n         1 MOL     -0.004120
    175 C58        -4.7950    0.8100    5.1070 c3        1 MOL     -0.200387
    176 H77        -5.0240    0.1110    5.9120 h1        1 MOL      0.075871
    177 H78        -3.9810    1.4660    5.4170 h1        1 MOL      0.075871
    178 H79        -5.6780    1.4070    4.8830 h1        1 MOL      0.075871
    179 H80        -4.4630    0.4870    3.0100 hn        1 MOL      0.011355
    180 Ca1         2.5970   -0.1340    0.1810 Ca        1 MOL      1.733133
    181 O27         2.0520   -0.5420    2.8980 oh        1 MOL     -0.908495
    182 O28         0.9450    1.2620   -1.9360 oh        1 MOL     -0.908495
    183 H81         1.7230   -1.2290    3.4880 ho        1 MOL      0.436069
    184 H82         1.5910    1.9400   -2.1160 ho        1 MOL      0.436069
    185 H83         2.5840    0.0180    3.4660 ho        1 MOL      0.436069
    186 H84         1.1090    0.5920   -2.5940 ho        1 MOL      0.436069
    187 O29         4.7790    0.2460    1.8280 oh        1 MOL     -0.908495
    188 H85         5.6040   -0.2250    1.9110 ho        1 MOL      0.436069
    189 H86         4.7160    0.7580    2.6330 ho        1 MOL      0.436069
@<TRIPOS>BOND
     1    1    2 1   
     2    1    4 1   
     3    1    5 1   
     4    1    6 1   
     5    2    3 2   
     6    2    7 1   
     7    7    8 1   
     8    7   15 1   
     9    8    9 1   
    10    8   11 1   
    11    8   16 1   
    12    9   10 2   
    13    9   19 1   
    14   11   12 1   
    15   11   17 1   
    16   11   18 1   
    17   12   13 1   
    18   12   14 1   
    19   19   20 1   
    20   19   27 1   
    21   20   21 1   
    22   20   23 1   
    23   20   28 1   
    24   21   22 2   
    25   21   38 1   
    26   23   24 1   
    27   23   25 1   
    28   23   29 1   
    29   24   26 1   
    30   24   30 1   
    31   24   31 1   
    32   25   32 1   
    33   25   33 1   
    34   25   34 1   
    35   26   35 1   
    36   26   36 1   
    37   26   37 1   
    38   38   39 1   
    39   38   46 1   
    40   39   40 1   
    41   39   42 1   
    42   39   47 1   
    43   40   41 2   
    44   40   50 1   
    45   42   43 1   
    46   42   48 1   
    47   42   49 1   
    48   43   44 1   
    49   43   45 1   
    50   50   51 1   
    51   50   54 1   
    52   51   52 1   
    53   51   55 1   
    54   51   56 1   
    55   52   53 2   
    56   52   57 1   
    57   57   58 1   
    58   57   65 1   
    59   58   59 1   
    60   58   61 1   
    61   58   66 1   
    62   59   60 2   
    63   59   69 1   
    64   61   62 1   
    65   61   67 1   
    66   61   68 1   
    67   62   63 1   
    68   62   64 1   
    69   69   70 1   
    70   69   73 1   
    71   70   71 1   
    72   70   74 1   
    73   70   75 1   
    74   71   72 2   
    75   71   76 1   
    76   76   77 1   
    77   76   85 1   
    78   77   78 1   
    79   77   80 1   
    80   77   86 1   
    81   78   79 2   
    82   78   93 1   
    83   80   81 1   
    84   80   87 1   
    85   80   88 1   
    86   81   82 1   
    87   81   89 1   
    88   81   90 1   
    89   82   83 1   
    90   82   84 2   
    91   83   91 1   
    92   83   92 1   
    93   93   94 1   
    94   93  100 1   
    95   94   95 1   
    96   94   97 1   
    97   94  101 1   
    98   95   96 2   
    99   95  109 1   
   100   97   98 1   
   101   97   99 1   
   102   97  102 1   
   103   98  103 1   
   104   98  104 1   
   105   98  105 1   
   106   99  106 1   
   107   99  107 1   
   108   99  108 1   
   109  109  110 1   
   110  109  117 1   
   111  110  111 1   
   112  110  113 1   
   113  110  118 1   
   114  111  112 2   
   115  111  123 1   
   116  113  114 1   
   117  113  119 1   
   118  113  120 1   
   119  114  115 1   
   120  114  116 2   
   121  115  121 1   
   122  115  122 1   
   123  123  124 1   
   124  123  135 1   
   125  124  125 1   
   126  124  127 1   
   127  124  136 1   
   128  125  126 2   
   129  125  144 1   
   130  127  128 1   
   131  127  137 1   
   132  127  138 1   
   133  128  129 ar  
   134  128  130 ar  
   135  129  131 ar  
   136  129  139 1   
   137  130  132 ar  
   138  130  140 1   
   139  131  133 ar  
   140  131  141 1   
   141  132  133 ar  
   142  132  142 1   
   143  133  134 1   
   144  134  143 1   
   145  144  145 1   
   146  144  153 1   
   147  145  146 1   
   148  145  148 1   
   149  145  154 1   
   150  146  147 2   
   151  146  159 1   
   152  148  149 1   
   153  148  155 1   
   154  148  156 1   
   155  149  150 1   
   156  149  157 1   
   157  149  158 1   
   158  150  151 1   
   159  150  152 1   
   160  159  160 1   
   161  159  168 1   
   162  160  161 1   
   163  160  163 1   
   164  160  169 1   
   165  161  162 2   
   166  161  174 1   
   167  163  164 1   
   168  163  170 1   
   169  163  171 1   
   170  164  165 1   
   171  164  172 1   
   172  164  173 1   
   173  165  166 1   
   174  165  167 1   
   175  174  175 1   
   176  174  179 1   
   177  175  176 1   
   178  175  177 1   
   179  175  178 1   
   180  181  183 1   
   181  181  185 1   
   182  182  184 1   
   183  182  186 1   
   184  187  188 1   
   185  187  189 1   
@<TRIPOS>SUBSTRUCTURE
     1 MOL         1 TEMP              0 ****  ****    0 ROOT
