@<TRIPOS>MOLECULE
MOL
  183   181     1     0     0
SMALL
resp


@<TRIPOS>ATOM
      1 C1         -0.5530    1.7690    6.2600 c3        1 MOL     -0.276040
      2 C2         -1.0040    1.9990    4.7420 c         1 MOL      0.746872
      3 O1         -0.2550    2.6710    4.0980 o         1 MOL     -0.528950
      4 H1          0.4150    1.2680    6.2790 hc        1 MOL      0.054242
      5 H2         -0.4740    2.7310    6.7660 hc        1 MOL      0.054242
      6 H3         -1.2920    1.1490    6.7690 hc        1 MOL      0.054242
      7 N1         -2.1930    1.4420    4.3780 n         1 MOL     -0.812222
      8 C3         -2.6760    1.5250    2.9830 c3        1 MOL      0.615438
      9 C4         -3.1620    2.9570    2.7610 c         1 MOL      0.348391
     10 O2         -3.8840    3.5430    3.5600 o         1 MOL     -0.567199
     11 C5         -3.7870    0.5270    2.8140 c3        1 MOL     -0.369790
     12 C6         -4.5760    0.5330    1.4790 c         1 MOL      0.684923
     13 O3         -5.7890    0.2310    1.4130 o         1 MOL     -0.606854
     14 O4         -4.0530    1.0280    0.4640 o         1 MOL     -0.606854
     15 H4         -2.7610    1.0710    5.1210 hn        1 MOL      0.370308
     16 H5         -1.9670    1.2650    2.2070 h1        1 MOL     -0.096054
     17 H6         -4.4400    0.8380    3.6300 hc        1 MOL      0.047381
     18 H7         -3.4280   -0.4890    2.9500 hc        1 MOL      0.047381
     19 N2         -2.8120    3.4680    1.6010 n         1 MOL     -0.080371
     20 C7         -3.0800    4.8360    1.1100 c3        1 MOL     -0.024907
     21 C8         -4.1510    4.8620   -0.0090 c         1 MOL      0.464757
     22 O5         -5.0230    5.7420   -0.0610 o         1 MOL     -0.563687
     23 C9         -1.7260    5.4510    0.6810 c3        1 MOL      0.071186
     24 C10        -0.6820    5.5630    1.8270 c3        1 MOL      0.110839
     25 C11        -2.0010    6.9250    0.1430 c3        1 MOL     -0.183351
     26 C12         0.6920    5.8670    1.3480 c3        1 MOL     -0.165568
     27 H8         -2.1760    2.8780    1.0940 hn        1 MOL      0.031250
     28 H9         -3.4920    5.3330    1.9810 h1        1 MOL      0.051160
     29 H10        -1.3370    4.7450   -0.0640 hc        1 MOL      0.028488
     30 H11        -0.6120    4.6400    2.4040 hc        1 MOL     -0.024925
     31 H12        -1.0680    6.3600    2.4610 hc        1 MOL     -0.024925
     32 H13        -2.5390    7.5880    0.8170 hc        1 MOL      0.042665
     33 H14        -1.0790    7.4530   -0.1110 hc        1 MOL      0.042665
     34 H15        -2.4910    6.9760   -0.8300 hc        1 MOL      0.042665
     35 H16         0.7370    6.9510    1.2290 hc        1 MOL      0.027940
     36 H17         1.4440    5.4690    2.0270 hc        1 MOL      0.027940
     37 H18         0.8460    5.3260    0.4200 hc        1 MOL      0.027940
     38 N3         -4.0030    3.9010   -0.9410 n         1 MOL     -0.303176
     39 C13        -4.8290    3.9000   -2.1820 c3        1 MOL      0.089103
     40 C14        -6.2110    3.1480   -2.0580 c         1 MOL      0.324472
     41 O6         -7.0120    3.2080   -3.0320 o         1 MOL     -0.523050
     42 C15        -4.0040    3.2940   -3.3140 c3        1 MOL     -0.203417
     43 C16        -3.4630    1.9040   -3.0970 c         1 MOL      0.822553
     44 O7         -4.2450    0.9380   -2.8520 o         1 MOL     -0.781068
     45 O8         -2.2210    1.7040   -3.0470 o         1 MOL     -0.781068
     46 H19        -3.3290    3.1850   -0.7250 hn        1 MOL      0.182934
     47 H20        -5.1240    4.9150   -2.4670 h1        1 MOL      0.082905
     48 H21        -3.2370    4.0280   -3.5420 hc        1 MOL      0.044973
     49 H22        -4.6810    3.3100   -4.1660 hc        1 MOL      0.044973
     50 N4         -6.4630    2.2950   -1.0220 n         1 MOL     -0.095001
     51 C17        -7.8420    1.8060   -0.7510 c3        1 MOL     -0.234641
     52 C18        -8.0580    0.3610   -1.1900 c         1 MOL      0.544777
     53 O9         -9.1840   -0.0230   -1.5540 o         1 MOL     -0.623680
     54 H23        -5.6840    1.9260   -0.4900 hn        1 MOL      0.122478
     55 H24        -8.5860    2.3920   -1.2850 h1        1 MOL      0.109124
     56 H25        -7.9850    1.8940    0.3230 h1        1 MOL      0.109124
     57 N5         -7.0050   -0.4170   -1.3570 n         1 MOL     -0.172388
     58 C19        -7.1340   -1.9100   -1.6880 c3        1 MOL      0.043252
     59 C20        -7.2260   -2.8290   -0.4350 c         1 MOL      0.429971
     60 O10        -7.8400   -3.9280   -0.5540 o         1 MOL     -0.569743
     61 C21        -6.0440   -2.4870   -2.6340 c3        1 MOL     -0.449213
     62 C22        -4.6060   -2.0330   -2.3630 c         1 MOL      0.922298
     63 O11        -3.6910   -2.0900   -3.2330 o         1 MOL     -0.760367
     64 O12        -4.2610   -1.8260   -1.1900 o         1 MOL     -0.760367
     65 H26        -6.1610   -0.0020   -1.0030 hn        1 MOL      0.195070
     66 H27        -8.1160   -2.0300   -2.1340 h1        1 MOL      0.092942
     67 H28        -6.3070   -2.1440   -3.6340 hc        1 MOL      0.125110
     68 H29        -6.0910   -3.5750   -2.6670 hc        1 MOL      0.125110
     69 N6         -6.7270   -2.3380    0.7260 n         1 MOL     -0.222642
     70 C23        -6.4820   -3.1800    1.9300 c3        1 MOL      0.060153
     71 C24        -5.1150   -3.8540    2.1200 c         1 MOL      0.425468
     72 O13        -4.9230   -4.8750    2.8190 o         1 MOL     -0.627183
     73 H30        -6.4190   -1.3750    0.7650 hn        1 MOL      0.098862
     74 H31        -7.2860   -3.9030    2.0710 h1        1 MOL      0.024067
     75 H32        -6.3980   -2.5340    2.8000 h1        1 MOL      0.024067
     76 N7         -4.1470   -3.4470    1.3760 n         1 MOL     -0.053757
     77 C25        -2.8870   -4.0840    1.2750 c3        1 MOL     -0.044340
     78 C26        -1.7850   -2.9930    1.2210 c         1 MOL      0.304404
     79 O14        -1.9470   -1.8390    0.8800 o         1 MOL     -0.521494
     80 C27        -2.7750   -4.8030   -0.0770 c3        1 MOL      0.344777
     81 C28        -3.7160   -5.9640   -0.1830 c3        1 MOL     -0.521228
     82 C29        -4.1380   -6.3040   -1.6550 c         1 MOL      0.759334
     83 N8         -5.0740   -7.1680   -1.8670 n         1 MOL     -0.777044
     84 O15        -3.5910   -5.8340   -2.6240 o         1 MOL     -0.559464
     85 H33        -4.3170   -2.5980    0.8570 hn        1 MOL      0.214229
     86 H34        -2.6410   -4.7160    2.1310 h1        1 MOL      0.079926
     87 H35        -1.7690   -5.2020   -0.2450 hc        1 MOL     -0.059398
     88 H36        -3.0690   -4.1700   -0.9050 hc        1 MOL     -0.059398
     89 H37        -4.6550   -5.7700    0.3270 hc        1 MOL      0.110651
     90 H38        -3.0810   -6.7760    0.1530 hc        1 MOL      0.110651
     91 H39        -5.4110   -7.5320   -0.9980 hn        1 MOL      0.347076
     92 H40        -5.1960   -7.5360   -2.8070 hn        1 MOL      0.347076
     93 N9         -0.5630   -3.3900    1.6260 n         1 MOL     -0.379178
     94 C30         0.6650   -2.6140    1.7640 c3        1 MOL      0.060770
     95 C31         1.7450   -3.1180    0.8060 c         1 MOL      0.467632
     96 O16         2.4220   -4.1330    1.0000 o         1 MOL     -0.543294
     97 C32         1.0800   -2.7380    3.2460 c3        1 MOL      0.185403
     98 C33         2.2390   -1.7050    3.5130 c3        1 MOL     -0.213612
     99 C34        -0.0380   -2.5100    4.3120 c3        1 MOL     -0.213612
    100 H41        -0.5540   -4.3450    1.9390 hn        1 MOL      0.253989
    101 H42         0.4400   -1.5550    1.5980 h1        1 MOL      0.178127
    102 H43         1.4930   -3.7350    3.4250 hc        1 MOL     -0.030262
    103 H44         2.9850   -1.7560    2.7140 hc        1 MOL      0.040933
    104 H45         1.8570   -0.7040    3.7440 hc        1 MOL      0.040933
    105 H46         2.8180   -2.0260    4.3710 hc        1 MOL      0.040933
    106 H47        -0.7510   -3.3340    4.3810 hc        1 MOL      0.040933
    107 H48         0.3560   -2.5130    5.3340 hc        1 MOL      0.040933
    108 H49        -0.4810   -1.5280    4.2160 hc        1 MOL      0.040933
    109 N10         1.8950   -2.4580   -0.3880 n         1 MOL     -0.415744
    110 C35         3.0530   -2.7330   -1.2650 c3        1 MOL      0.145432
    111 C36         4.3390   -2.1770   -0.5340 c         1 MOL      0.386187
    112 O17         4.2750   -1.3650    0.3790 o         1 MOL     -0.272651
    113 C37         2.8030   -1.9620   -2.6130 c3        1 MOL     -0.211043
    114 C38         3.2740   -0.4780   -2.7330 c         1 MOL      0.577560
    115 N11         2.3790    0.4240   -2.3150 n         1 MOL     -0.655188
    116 O18         4.3190   -0.1780   -3.2970 o         1 MOL     -0.562726
    117 H50         1.4060   -1.5800   -0.4760 hn        1 MOL      0.204439
    118 H51         3.1650   -3.7580   -1.5960 h1        1 MOL      0.070928
    119 H52         1.7500   -2.0210   -2.8900 hc        1 MOL      0.060030
    120 H53         3.4220   -2.5830   -3.2710 hc        1 MOL      0.060030
    121 H54         1.6160    0.1470   -1.7320 hn        1 MOL      0.372158
    122 H55         2.5220    1.4020   -2.5480 hn        1 MOL      0.372158
    123 N12         5.5460   -2.4380   -1.0790 n         1 MOL     -0.598341
    124 C39         6.8320   -2.0120   -0.5330 c3        1 MOL      0.320386
    125 C40         6.9770   -0.5160   -0.3790 c         1 MOL      0.626272
    126 O19         7.3650   -0.1620    0.7290 o         1 MOL     -0.528768
    127 C41         7.9630   -2.4320   -1.5210 c3        1 MOL     -0.265215
    128 C42         9.3590   -2.2860   -0.9660 ca        1 MOL      0.131475
    129 C43         9.8090   -2.9520    0.2240 ca        1 MOL     -0.237309
    130 C44        10.2920   -1.5810   -1.7220 ca        1 MOL     -0.237309
    131 C45        11.1740   -2.7690    0.6570 ca        1 MOL     -0.186228
    132 C46        11.6380   -1.4890   -1.3560 ca        1 MOL     -0.186228
    133 C47        12.0870   -2.0910   -0.1650 ca        1 MOL      0.269718
    134 O20        13.3930   -1.9260    0.1790 oh        1 MOL     -0.498361
    135 H56         5.5380   -3.1360   -1.8130 hn        1 MOL      0.298231
    136 H57         6.8700   -2.4310    0.4700 h1        1 MOL      0.033176
    137 H58         7.8470   -1.9800   -2.5030 hc        1 MOL      0.080162
    138 H59         7.7270   -3.4790   -1.7110 hc        1 MOL      0.080162
    139 H60         9.2140   -3.6370    0.8130 ha        1 MOL      0.150377
    140 H61         9.9710   -1.0940   -2.6300 ha        1 MOL      0.150377
    141 H62        11.5190   -3.3310    1.5170 ha        1 MOL      0.127402
    142 H63        12.3950   -0.8750   -1.8350 ha        1 MOL      0.127402
    143 H64        13.8410   -1.3700   -0.4650 ho        1 MOL      0.358994
    144 N13         6.5460    0.3390   -1.3440 n         1 MOL     -0.588602
    145 C48         6.4390    1.7900   -1.1480 c3        1 MOL      0.208935
    146 C49         5.6200    2.2520    0.1210 c         1 MOL      0.283545
    147 O21         6.0830    3.0360    0.9250 o         1 MOL     -0.491640
    148 C50         5.8460    2.4340   -2.3610 c3        1 MOL     -0.066315
    149 C51         5.9250    3.9270   -2.2100 c3        1 MOL     -0.452548
    150 C52         5.5490    4.5040   -3.6590 c         1 MOL      0.717276
    151 O22         6.3580    4.5510   -4.6660 o         1 MOL     -0.726411
    152 O23         4.3530    4.8380   -3.8830 o         1 MOL     -0.726411
    153 H65         6.1500    0.0130   -2.2130 hn        1 MOL      0.294375
    154 H66         7.4250    2.1910   -0.9290 h1        1 MOL      0.054961
    155 H67         4.7890    2.2290   -2.5270 hc        1 MOL      0.090112
    156 H68         6.3490    2.1130   -3.2750 hc        1 MOL      0.090112
    157 H69         6.9750    4.2080   -2.1190 hc        1 MOL      0.092571
    158 H70         5.3390    4.4160   -1.4340 hc        1 MOL      0.092571
    159 N14         4.4200    1.6960    0.3240 n         1 MOL     -0.003261
    160 C53         3.6470    1.8980    1.5730 c3        1 MOL     -0.072950
    161 C54         4.3490    1.3770    2.8800 c         1 MOL      0.503018
    162 O24         4.1910    2.0090    3.8760 o         1 MOL     -0.573966
    163 C55         2.2420    1.2460    1.4490 c3        1 MOL      0.227368
    164 C56         1.3210    1.9940    0.3550 c3        1 MOL     -0.331064
    165 C57         0.0580    1.2650   -0.1740 c         1 MOL      0.701091
    166 O25        -1.0780    1.7420    0.0160 o         1 MOL     -0.679706
    167 O26         0.2230    0.1380   -0.6240 o         1 MOL     -0.679706
    168 H71         4.1660    0.9300   -0.2830 hn        1 MOL     -0.130979
    169 H72         3.4060    2.9290    1.8490 h1        1 MOL      0.103390
    170 H73         1.7420    1.2120    2.4180 hc        1 MOL     -0.027503
    171 H74         2.3660    0.2640    1.0010 hc        1 MOL     -0.027503
    172 H75         1.9530    2.2650   -0.4800 hc        1 MOL      0.109340
    173 H76         0.9630    2.9650    0.7180 hc        1 MOL      0.109340
    174 N15         5.1880    0.3280    2.8560 n         1 MOL      0.023745
    175 C58         5.9670   -0.2300    3.9890 c3        1 MOL     -0.303772
    176 H77         6.7420   -0.8920    3.6050 h1        1 MOL      0.096534
    177 H78         6.4290    0.5830    4.5490 h1        1 MOL      0.096534
    178 H79         5.3020   -0.7920    4.6450 h1        1 MOL      0.096534
    179 H80         5.4750    0.0420    1.9360 hn        1 MOL      0.011376
    180 Ca1        -2.3770   -0.1800   -1.1870 Ca        1 MOL      1.707524
    181 O27        -1.0060   -1.2500   -3.2650 oh        1 MOL     -0.864144
    182 H81        -0.5460   -0.8460   -3.9970 ho        1 MOL      0.428359
    183 H82        -1.3280   -2.0760   -3.6070 ho        1 MOL      0.428359
@<TRIPOS>BOND
     1    1    2 1   
     2    1    4 1   
     3    1    5 1   
     4    1    6 1   
     5    2    3 2   
     6    2    7 1   
     7    7    8 1   
     8    7   15 1   
     9    8    9 1   
    10    8   11 1   
    11    8   16 1   
    12    9   10 2   
    13    9   19 1   
    14   11   12 1   
    15   11   17 1   
    16   11   18 1   
    17   12   13 1   
    18   12   14 1   
    19   19   20 1   
    20   19   27 1   
    21   20   21 1   
    22   20   23 1   
    23   20   28 1   
    24   21   22 2   
    25   21   38 1   
    26   23   24 1   
    27   23   25 1   
    28   23   29 1   
    29   24   26 1   
    30   24   30 1   
    31   24   31 1   
    32   25   32 1   
    33   25   33 1   
    34   25   34 1   
    35   26   35 1   
    36   26   36 1   
    37   26   37 1   
    38   38   39 1   
    39   38   46 1   
    40   39   40 1   
    41   39   42 1   
    42   39   47 1   
    43   40   41 2   
    44   40   50 1   
    45   42   43 1   
    46   42   48 1   
    47   42   49 1   
    48   43   44 1   
    49   43   45 1   
    50   50   51 1   
    51   50   54 1   
    52   51   52 1   
    53   51   55 1   
    54   51   56 1   
    55   52   53 2   
    56   52   57 1   
    57   57   58 1   
    58   57   65 1   
    59   58   59 1   
    60   58   61 1   
    61   58   66 1   
    62   59   60 2   
    63   59   69 1   
    64   61   62 1   
    65   61   67 1   
    66   61   68 1   
    67   62   63 1   
    68   62   64 1   
    69   69   70 1   
    70   69   73 1   
    71   70   71 1   
    72   70   74 1   
    73   70   75 1   
    74   71   72 2   
    75   71   76 1   
    76   76   77 1   
    77   76   85 1   
    78   77   78 1   
    79   77   80 1   
    80   77   86 1   
    81   78   79 2   
    82   78   93 1   
    83   80   81 1   
    84   80   87 1   
    85   80   88 1   
    86   81   82 1   
    87   81   89 1   
    88   81   90 1   
    89   82   83 1   
    90   82   84 2   
    91   83   91 1   
    92   83   92 1   
    93   93   94 1   
    94   93  100 1   
    95   94   95 1   
    96   94   97 1   
    97   94  101 1   
    98   95   96 2   
    99   95  109 1   
   100   97   98 1   
   101   97   99 1   
   102   97  102 1   
   103   98  103 1   
   104   98  104 1   
   105   98  105 1   
   106   99  106 1   
   107   99  107 1   
   108   99  108 1   
   109  109  110 1   
   110  109  117 1   
   111  110  111 1   
   112  110  113 1   
   113  110  118 1   
   114  111  112 2   
   115  111  123 1   
   116  113  114 1   
   117  113  119 1   
   118  113  120 1   
   119  114  115 1   
   120  114  116 2   
   121  115  121 1   
   122  115  122 1   
   123  123  124 1   
   124  123  135 1   
   125  124  125 1   
   126  124  127 1   
   127  124  136 1   
   128  125  126 2   
   129  125  144 1   
   130  127  128 1   
   131  127  137 1   
   132  127  138 1   
   133  128  129 ar  
   134  128  130 ar  
   135  129  131 ar  
   136  129  139 1   
   137  130  132 ar  
   138  130  140 1   
   139  131  133 ar  
   140  131  141 1   
   141  132  133 ar  
   142  132  142 1   
   143  133  134 1   
   144  134  143 1   
   145  144  145 1   
   146  144  153 1   
   147  145  146 1   
   148  145  148 1   
   149  145  154 1   
   150  146  147 2   
   151  146  159 1   
   152  148  149 1   
   153  148  155 1   
   154  148  156 1   
   155  149  150 1   
   156  149  157 1   
   157  149  158 1   
   158  150  151 1   
   159  150  152 1   
   160  159  160 1   
   161  159  168 1   
   162  160  161 1   
   163  160  163 1   
   164  160  169 1   
   165  161  162 2   
   166  161  174 1   
   167  163  164 1   
   168  163  170 1   
   169  163  171 1   
   170  164  165 1   
   171  164  172 1   
   172  164  173 1   
   173  165  166 1   
   174  165  167 1   
   175  174  175 1   
   176  174  179 1   
   177  175  176 1   
   178  175  177 1   
   179  175  178 1   
   180  181  182 1   
   181  181  183 1   
@<TRIPOS>SUBSTRUCTURE
     1 MOL         1 TEMP              0 ****  ****    0 ROOT
