@<TRIPOS>MOLECULE
MOL
  175   173     1     0     0
SMALL
resp


@<TRIPOS>ATOM
      1 C1         -0.9730    3.1180    6.1230 c3        1 MOL     -0.358618
      2 C2         -1.2630    2.7950    4.6130 c         1 MOL      0.728504
      3 O1         -0.3180    2.8560    3.8530 o         1 MOL     -0.554863
      4 H1         -1.9150    3.1880    6.6670 hc        1 MOL      0.082607
      5 H2         -0.3630    2.3240    6.5540 hc        1 MOL      0.082607
      6 H3         -0.4400    4.0670    6.1970 hc        1 MOL      0.082607
      7 N1         -2.5110    2.3670    4.3140 n         1 MOL     -0.704554
      8 C3         -2.8990    2.1850    2.8810 c3        1 MOL      0.139897
      9 C4         -3.3760    3.5110    2.1150 c         1 MOL      0.623818
     10 O2         -4.3720    4.1780    2.5860 o         1 MOL     -0.604521
     11 C5         -4.0260    1.2010    2.8400 c3        1 MOL      0.021470
     12 C6         -4.4060    0.6390    1.4740 c         1 MOL      0.578162
     13 O3         -5.2910   -0.2380    1.3000 o         1 MOL     -0.627362
     14 O4         -3.6630    1.0500    0.5600 o         1 MOL     -0.627362
     15 H4         -3.1690    2.1630    5.0520 hn        1 MOL      0.363089
     16 H5         -2.0280    1.8080    2.3430 h1        1 MOL      0.012485
     17 H6         -4.8990    1.6310    3.3320 hc        1 MOL     -0.000391
     18 H7         -3.8910    0.3780    3.5380 hc        1 MOL     -0.000391
     19 N2         -2.6730    3.8460    1.0260 n         1 MOL     -0.392316
     20 C7         -2.6540    5.2220    0.5070 c3        1 MOL      0.075932
     21 C8         -3.1560    5.3940   -0.9280 c         1 MOL      0.470421
     22 O5         -3.4970    6.5190   -1.3190 o         1 MOL     -0.560319
     23 C9         -1.2620    5.8100    0.5900 c3        1 MOL     -0.273384
     24 H8         -1.8810    3.2730    0.7540 hn        1 MOL      0.261927
     25 H9         -3.3120    5.8340    1.1170 h1        1 MOL      0.070690
     26 H10        -0.8200    5.8790    1.5940 hc        1 MOL      0.072631
     27 H11        -0.5810    5.2690   -0.0720 hc        1 MOL      0.072631
     28 H12        -1.3850    6.7850    0.1080 hc        1 MOL      0.072631
     29 N3         -3.3290    4.2860   -1.6250 n         1 MOL     -0.288884
     30 C10        -4.1980    4.1920   -2.7420 c3        1 MOL     -0.040454
     31 C11        -5.4780    3.4510   -2.3160 c         1 MOL      0.449455
     32 O6         -6.4780    3.5850   -3.0040 o         1 MOL     -0.539823
     33 C12        -3.5720    3.4990   -3.9410 c3        1 MOL      0.027387
     34 C13        -2.7900    2.2410   -3.6110 c         1 MOL      0.644538
     35 O7         -2.0090    1.8850   -4.5580 o         1 MOL     -0.695824
     36 O8         -2.9020    1.6190   -2.5240 o         1 MOL     -0.695824
     37 H13        -2.8760    3.4530   -1.2790 hn        1 MOL      0.265978
     38 H14        -4.6010    5.1390   -3.1010 h1        1 MOL      0.080717
     39 H15        -2.8720    4.1230   -4.4990 hc        1 MOL      0.010489
     40 H16        -4.3340    3.2780   -4.6920 hc        1 MOL      0.010489
     41 N4         -5.4790    2.6190   -1.2360 n         1 MOL      0.018958
     42 C14        -6.6710    2.0690   -0.6490 c3        1 MOL     -0.175216
     43 C15        -7.1430    0.8220   -1.4520 c         1 MOL      0.648840
     44 O9         -8.0160    0.9830   -2.3190 o         1 MOL     -0.561643
     45 H17        -4.5770    2.4250   -0.8190 hn        1 MOL     -0.058599
     46 H18        -7.4820    2.7890   -0.5020 h1        1 MOL      0.071455
     47 H19        -6.4390    1.6840    0.3470 h1        1 MOL      0.071455
     48 N5         -6.5680   -0.3700   -1.1020 n         1 MOL     -0.614293
     49 C16        -6.8630   -1.6310   -1.7510 c3        1 MOL      0.333977
     50 C17        -7.0430   -2.7500   -0.6550 c         1 MOL      0.313322
     51 O10        -7.5620   -3.7960   -0.9830 o         1 MOL     -0.538431
     52 C18        -5.8350   -1.9190   -2.7370 c3        1 MOL     -0.285232
     53 C19        -4.6290   -2.6010   -2.0980 c         1 MOL      0.548268
     54 N6         -4.6020   -3.9350   -2.1660 n         1 MOL     -0.676325
     55 O11        -3.8120   -1.9860   -1.4200 o         1 MOL     -0.609730
     56 H20        -6.0460   -0.3270   -0.2290 hn        1 MOL      0.196360
     57 H21        -7.8280   -1.5590   -2.2560 h1        1 MOL      0.031649
     58 H22        -5.4790   -1.0430   -3.2810 hc        1 MOL      0.101127
     59 H23        -6.3480   -2.6150   -3.4040 hc        1 MOL      0.101127
     60 H24        -5.3560   -4.4170   -2.6360 hn        1 MOL      0.327304
     61 H25        -3.8570   -4.4990   -1.7730 hn        1 MOL      0.327304
     62 N7         -6.5690   -2.5150    0.5820 n         1 MOL     -0.112254
     63 C20        -6.5580   -3.5180    1.6480 c3        1 MOL     -0.250747
     64 C21        -5.1930   -4.1100    1.9740 c         1 MOL      0.713247
     65 O12        -5.1230   -4.6410    3.0600 o         1 MOL     -0.593847
     66 H26        -6.1030   -1.6400    0.7730 hn        1 MOL      0.220441
     67 H27        -7.2790   -4.3240    1.4880 h1        1 MOL      0.108627
     68 H28        -6.7850   -2.8910    2.5180 h1        1 MOL      0.108627
     69 N8         -4.2320   -4.0790    1.0770 n         1 MOL     -0.512582
     70 C22        -2.8630   -4.4020    1.5130 c3        1 MOL      0.093569
     71 C23        -1.9080   -3.2260    1.5580 c         1 MOL      0.606351
     72 O13        -2.2150   -2.1540    0.9620 o         1 MOL     -0.538084
     73 C24        -2.2200   -5.3890    0.5530 c3        1 MOL      0.320267
     74 C25        -2.8890   -6.7390    0.7240 c3        1 MOL     -0.408465
     75 O14        -2.2630   -4.9590   -0.8270 oh        1 MOL     -0.540986
     76 H29        -4.2950   -3.6140    0.1760 hn        1 MOL      0.308762
     77 H30        -2.8740   -4.8430    2.5130 h1        1 MOL      0.058766
     78 H31        -1.1640   -5.4860    0.7910 h1        1 MOL      0.017003
     79 H32        -1.9880   -5.7490   -1.2980 ho        1 MOL      0.383758
     80 H33        -2.2710   -7.4150    0.1450 hc        1 MOL      0.104850
     81 H34        -2.8800   -7.0220    1.7720 hc        1 MOL      0.104850
     82 H35        -3.8910   -6.8010    0.2900 hc        1 MOL      0.104850
     83 N9         -0.6970   -3.3660    2.0940 n         1 MOL     -0.516168
     84 C26         0.4530   -2.4860    1.7800 c3        1 MOL     -0.050586
     85 C27         1.5010   -3.0910    0.8410 c         1 MOL      0.492856
     86 O15         1.6520   -4.3540    0.7280 o         1 MOL     -0.610503
     87 C28         1.0360   -1.6720    2.9100 c3        1 MOL      0.282774
     88 C29         1.7640   -2.5230    3.9790 c3        1 MOL      0.016663
     89 C30        -0.0170   -0.8180    3.4960 c3        1 MOL     -0.212980
     90 C31         2.4730   -1.7400    5.1230 c3        1 MOL     -0.091255
     91 H36        -0.4760   -4.2980    2.4140 hn        1 MOL      0.257494
     92 H37         0.0640   -1.7060    1.1340 h1        1 MOL      0.019006
     93 H38         1.8070   -0.9930    2.5420 hc        1 MOL     -0.139969
     94 H39         2.5780   -3.0510    3.4850 hc        1 MOL     -0.002531
     95 H40         1.0430   -3.1970    4.4480 hc        1 MOL     -0.002531
     96 H41         0.4660   -0.1390    4.2000 hc        1 MOL      0.053251
     97 H42        -0.3710   -0.2030    2.6680 hc        1 MOL      0.053251
     98 H43        -0.8540   -1.3930    3.8990 hc        1 MOL      0.053251
     99 H44         3.2120   -2.3500    5.6450 hc        1 MOL      0.013743
    100 H45         2.8030   -0.7400    4.8260 hc        1 MOL      0.013743
    101 H46         1.6450   -1.6730    5.8320 hc        1 MOL      0.013743
    102 N10         2.2080   -2.2520    0.1490 n         1 MOL     -0.246860
    103 C32         3.2190   -2.5340   -0.8590 c3        1 MOL      0.128189
    104 C33         4.3980   -1.5910   -0.5680 c         1 MOL      0.366744
    105 O16         4.3680   -0.7180    0.2870 o         1 MOL     -0.350970
    106 C34         2.6290   -2.2470   -2.2400 c3        1 MOL     -0.297571
    107 C35         3.4260   -2.7380   -3.4100 c         1 MOL      0.652388
    108 O17         4.5080   -3.3760   -3.3200 o         1 MOL     -0.681253
    109 O18         3.0600   -2.3280   -4.5430 o         1 MOL     -0.681253
    110 H47         1.7910   -1.3530    0.3140 hn        1 MOL      0.185425
    111 H48         3.5990   -3.5560   -0.7580 h1        1 MOL      0.071379
    112 H49         2.4320   -1.1760   -2.3100 hc        1 MOL      0.098827
    113 H50         1.6160   -2.6450   -2.3080 hc        1 MOL      0.098827
    114 N11         5.5310   -1.8300   -1.3020 n         1 MOL     -0.579656
    115 C36         6.8090   -1.1130   -0.8880 c3        1 MOL      0.533154
    116 C37         6.7400    0.4370   -0.6620 c         1 MOL      0.295990
    117 O19         7.3430    0.7940    0.2860 o         1 MOL     -0.518680
    118 C38         7.8630   -1.4780   -1.8430 c3        1 MOL     -0.257436
    119 C39         9.3100   -1.3320   -1.4380 ca        1 MOL      0.028487
    120 C40         9.6390   -1.7460   -0.1150 ca        1 MOL     -0.072182
    121 C41        10.1950   -0.6470   -2.2910 ca        1 MOL     -0.072182
    122 C42        10.9550   -1.5670    0.3150 ca        1 MOL     -0.195453
    123 C43        11.5500   -0.5730   -1.8840 ca        1 MOL     -0.195453
    124 C44        11.8830   -0.9460   -0.5520 ca        1 MOL     -0.061511
    125 H51         5.4730   -2.4630   -2.0760 hn        1 MOL      0.276407
    126 H52         6.9850   -1.5800    0.0820 h1        1 MOL     -0.000152
    127 H53         7.7140   -0.8940   -2.7530 hc        1 MOL      0.069590
    128 H54         7.6870   -2.5490   -2.0090 hc        1 MOL      0.069590
    129 H55         9.0000   -2.2540    0.5840 ha        1 MOL      0.104559
    130 H56         9.9210   -0.3370   -3.2960 ha        1 MOL      0.104559
    131 H57        11.2220   -1.8150    1.3340 ha        1 MOL      0.123944
    132 H58        12.3350   -0.1710   -2.5070 ha        1 MOL      0.123944
    133 H59        12.8930   -0.6850   -0.2580 ha        1 MOL      0.080471
    134 N12         6.0610    1.2930   -1.4220 n         1 MOL     -0.015138
    135 C45         6.1420    2.7520   -1.1440 c3        1 MOL     -0.075420
    136 C46         5.3580    3.1120    0.1870 c         1 MOL      0.302457
    137 O20         5.6090    4.1610    0.7630 o         1 MOL     -0.490860
    138 C47         5.4730    3.3480   -2.4130 c3        1 MOL     -0.116147
    139 C48         5.4140    2.2630   -3.4540 c3        1 MOL     -0.006334
    140 C49         5.2670    1.0060   -2.6320 c3        1 MOL     -0.174293
    141 H60         7.1730    3.0590   -0.9890 h1        1 MOL      0.110525
    142 H61         4.4650    3.7310   -2.2870 hc        1 MOL      0.066555
    143 H62         6.0440    4.1970   -2.7910 hc        1 MOL      0.066555
    144 H63         4.6350    2.4260   -4.2000 hc        1 MOL      0.020225
    145 H64         6.4060    2.1220   -3.8980 hc        1 MOL      0.020225
    146 H65         4.2190    0.8320   -2.4080 h1        1 MOL      0.133571
    147 H66         5.7090    0.1310   -3.1170 h1        1 MOL      0.133571
    148 N13         4.4180    2.2210    0.6220 n         1 MOL      0.124101
    149 C50         3.6350    2.4260    1.8000 c3        1 MOL     -0.237156
    150 C51         4.4620    1.8670    3.0420 c         1 MOL      0.445122
    151 O21         4.7240    2.6320    4.0000 o         1 MOL     -0.548661
    152 C52         2.2110    1.9040    1.6790 c3        1 MOL     -0.005556
    153 C53         1.4430    2.5340    0.4770 c3        1 MOL      0.001097
    154 C54         0.3140    1.6690    0.0160 c         1 MOL      0.604907
    155 O22        -0.8000    2.1420   -0.3060 o         1 MOL     -0.701059
    156 O23         0.4530    0.3940   -0.0830 o         1 MOL     -0.701059
    157 H67         4.3550    1.3080    0.1980 hn        1 MOL     -0.057011
    158 H68         3.5720    3.4910    2.0080 h1        1 MOL      0.107341
    159 H69         1.6440    2.1640    2.5730 hc        1 MOL      0.082745
    160 H70         2.1490    0.8260    1.6980 hc        1 MOL      0.082745
    161 H71         2.1050    2.9220   -0.2930 hc        1 MOL      0.025571
    162 H72         1.0370    3.4490    0.9280 hc        1 MOL      0.025571
    163 N14         5.1680    0.7360    2.8290 n         1 MOL      0.031671
    164 C55         6.0740    0.0910    3.8320 c3        1 MOL     -0.235760
    165 H73         5.6050    0.1230    4.8160 h1        1 MOL      0.086046
    166 H74         6.2520   -0.9460    3.5480 h1        1 MOL      0.086046
    167 H75         7.0220    0.6280    3.8640 h1        1 MOL      0.086046
    168 H76         5.0180    0.2750    1.9460 hn        1 MOL      0.024804
    169 Ca1        -1.8860   -0.1730   -1.0740 Ca        1 MOL      1.781694
    170 O24        -0.5400   -0.1660   -3.4160 oh        1 MOL     -0.892583
    171 H77        -1.1220    0.3850   -3.9360 ho        1 MOL      0.412591
    172 H78         0.2350   -0.2850   -3.9620 ho        1 MOL      0.412591
    173 O25        -1.1760   -2.6660   -1.6280 oh        1 MOL     -0.892583
    174 H79        -1.6950   -3.4200   -1.3620 ho        1 MOL      0.412591
    175 H80        -0.4380   -3.0390   -2.1110 ho        1 MOL      0.412591
@<TRIPOS>BOND
     1    1    2 1   
     2    1    4 1   
     3    1    5 1   
     4    1    6 1   
     5    2    3 2   
     6    2    7 1   
     7    7    8 1   
     8    7   15 1   
     9    8    9 1   
    10    8   11 1   
    11    8   16 1   
    12    9   10 2   
    13    9   19 1   
    14   11   12 1   
    15   11   17 1   
    16   11   18 1   
    17   12   13 1   
    18   12   14 1   
    19   19   20 1   
    20   19   24 1   
    21   20   21 1   
    22   20   23 1   
    23   20   25 1   
    24   21   22 2   
    25   21   29 1   
    26   23   26 1   
    27   23   27 1   
    28   23   28 1   
    29   29   30 1   
    30   29   37 1   
    31   30   31 1   
    32   30   33 1   
    33   30   38 1   
    34   31   32 2   
    35   31   41 1   
    36   33   34 1   
    37   33   39 1   
    38   33   40 1   
    39   34   35 1   
    40   34   36 1   
    41   41   42 1   
    42   41   45 1   
    43   42   43 1   
    44   42   46 1   
    45   42   47 1   
    46   43   44 2   
    47   43   48 1   
    48   48   49 1   
    49   48   56 1   
    50   49   50 1   
    51   49   52 1   
    52   49   57 1   
    53   50   51 2   
    54   50   62 1   
    55   52   53 1   
    56   52   58 1   
    57   52   59 1   
    58   53   54 1   
    59   53   55 2   
    60   54   60 1   
    61   54   61 1   
    62   62   63 1   
    63   62   66 1   
    64   63   64 1   
    65   63   67 1   
    66   63   68 1   
    67   64   65 2   
    68   64   69 1   
    69   69   70 1   
    70   69   76 1   
    71   70   71 1   
    72   70   73 1   
    73   70   77 1   
    74   71   72 2   
    75   71   83 1   
    76   73   74 1   
    77   73   75 1   
    78   73   78 1   
    79   74   80 1   
    80   74   81 1   
    81   74   82 1   
    82   75   79 1   
    83   83   84 1   
    84   83   91 1   
    85   84   85 1   
    86   84   87 1   
    87   84   92 1   
    88   85   86 2   
    89   85  102 1   
    90   87   88 1   
    91   87   89 1   
    92   87   93 1   
    93   88   90 1   
    94   88   94 1   
    95   88   95 1   
    96   89   96 1   
    97   89   97 1   
    98   89   98 1   
    99   90   99 1   
   100   90  100 1   
   101   90  101 1   
   102  102  103 1   
   103  102  110 1   
   104  103  104 1   
   105  103  106 1   
   106  103  111 1   
   107  104  105 2   
   108  104  114 1   
   109  106  107 1   
   110  106  112 1   
   111  106  113 1   
   112  107  108 1   
   113  107  109 1   
   114  114  115 1   
   115  114  125 1   
   116  115  116 1   
   117  115  118 1   
   118  115  126 1   
   119  116  117 2   
   120  116  134 1   
   121  118  119 1   
   122  118  127 1   
   123  118  128 1   
   124  119  120 ar  
   125  119  121 ar  
   126  120  122 ar  
   127  120  129 1   
   128  121  123 ar  
   129  121  130 1   
   130  122  124 ar  
   131  122  131 1   
   132  123  124 ar  
   133  123  132 1   
   134  124  133 1   
   135  134  135 1   
   136  134  140 1   
   137  135  136 1   
   138  135  138 1   
   139  135  141 1   
   140  136  137 2   
   141  136  148 1   
   142  138  139 1   
   143  138  142 1   
   144  138  143 1   
   145  139  140 1   
   146  139  144 1   
   147  139  145 1   
   148  140  146 1   
   149  140  147 1   
   150  148  149 1   
   151  148  157 1   
   152  149  150 1   
   153  149  152 1   
   154  149  158 1   
   155  150  151 2   
   156  150  163 1   
   157  152  153 1   
   158  152  159 1   
   159  152  160 1   
   160  153  154 1   
   161  153  161 1   
   162  153  162 1   
   163  154  155 1   
   164  154  156 1   
   165  163  164 1   
   166  163  168 1   
   167  164  165 1   
   168  164  166 1   
   169  164  167 1   
   170  170  171 1   
   171  170  172 1   
   172  173  174 1   
   173  173  175 1   
@<TRIPOS>SUBSTRUCTURE
     1 MOL         1 TEMP              0 ****  ****    0 ROOT
