@<TRIPOS>MOLECULE
MOL
  189   185     1     0     0
SMALL
resp


@<TRIPOS>ATOM
      1 C1         -0.1200    3.1430   -5.1210 c3        1 MOL     -0.240046
      2 C2          0.3290    2.7650   -3.6650 c         1 MOL      0.500250
      3 O1         -0.3490    3.0570   -2.6710 o         1 MOL     -0.546454
      4 H1         -1.0660    3.6830   -5.0800 hc        1 MOL      0.066268
      5 H2          0.6380    3.7750   -5.5830 hc        1 MOL      0.066268
      6 H3         -0.2460    2.2340   -5.7100 hc        1 MOL      0.066268
      7 N1          1.5480    2.2390   -3.5340 n         1 MOL     -0.379786
      8 C3          2.2610    1.8780   -2.3070 c3        1 MOL      0.087538
      9 C4          2.8390    3.0260   -1.4530 c         1 MOL      0.282352
     10 O2          4.0320    3.4020   -1.5330 o         1 MOL     -0.476004
     11 C5          3.4690    0.8660   -2.6070 c3        1 MOL     -0.231974
     12 C6          4.0990    0.3480   -1.3330 c         1 MOL      0.792191
     13 O3          3.5170    0.6400   -0.2700 o         1 MOL     -0.682339
     14 O4          5.1320   -0.3840   -1.4530 o         1 MOL     -0.682339
     15 H4          2.0350    1.9940   -4.3840 hn        1 MOL      0.276048
     16 H5          1.5020    1.4370   -1.6690 h1        1 MOL      0.032285
     17 H6          4.2780    1.3220   -3.1910 hc        1 MOL      0.058434
     18 H7          3.0890    0.0100   -3.1670 hc        1 MOL      0.058434
     19 N2          1.9700    3.6060   -0.6050 n         1 MOL     -0.205814
     20 C7          2.2840    4.8420    0.1390 c3        1 MOL     -0.026057
     21 C8          3.1940    4.7200    1.3450 c         1 MOL      0.567217
     22 O5          3.4810    5.7180    1.9980 o         1 MOL     -0.576201
     23 C9          0.9920    5.6930    0.4160 c3        1 MOL     -0.007411
     24 C10         0.4300    6.3170   -0.8250 c3        1 MOL      0.135504
     25 C11        -0.8400    7.2150   -0.4600 c3        1 MOL     -0.060217
     26 C12        -1.4920    8.0660   -1.5490 c3        1 MOL     -0.074009
     27 N3         -1.5150    7.3300   -2.8920 n4        1 MOL     -0.152066
     28 H8          1.0150    3.2800   -0.7050 hn        1 MOL      0.355467
     29 H9          2.9730    5.4500   -0.4580 h1        1 MOL      0.067190
     30 H10         1.2880    6.4910    1.0950 hc        1 MOL      0.008287
     31 H11         0.2280    5.1280    0.9340 hc        1 MOL      0.008287
     32 H12         0.1090    5.4670   -1.4220 hc        1 MOL     -0.041455
     33 H13         1.2200    6.8600   -1.3430 hc        1 MOL     -0.041455
     34 H14        -0.5800    7.8590    0.3790 hc        1 MOL      0.063881
     35 H15        -1.6890    6.5600   -0.2660 hc        1 MOL      0.063881
     36 H16        -0.9210    8.9840   -1.6580 hx        1 MOL      0.096244
     37 H17        -2.5190    8.2350   -1.2020 hx        1 MOL      0.096244
     38 H18        -1.8410    6.3760   -2.8230 hn        1 MOL      0.273613
     39 H19        -2.1120    7.8310   -3.5430 hn        1 MOL      0.273613
     40 H20        -0.5680    7.3150   -3.2450 hn        1 MOL      0.273613
     41 N4          3.7870    3.5580    1.6830 n         1 MOL     -0.208319
     42 C13         4.8330    3.4280    2.6440 c3        1 MOL     -0.178476
     43 C14         5.9910    2.5030    2.1780 c         1 MOL      0.429385
     44 O6          7.0240    2.5270    2.8050 o         1 MOL     -0.524418
     45 C15         4.2660    2.9720    4.0150 c3        1 MOL     -0.131704
     46 C16         3.0070    2.0790    3.8810 c         1 MOL      0.707449
     47 O7          2.2720    2.0670    4.8960 o         1 MOL     -0.635896
     48 O8          2.8620    1.2480    2.9580 o         1 MOL     -0.635896
     49 H21         3.5250    2.6740    1.2700 hn        1 MOL      0.069628
     50 H22         5.3940    4.3510    2.7980 h1        1 MOL      0.157418
     51 H23         3.9060    3.8530    4.5600 hc        1 MOL      0.060363
     52 H24         4.9040    2.4410    4.7230 hc        1 MOL      0.060363
     53 N5          6.0340    2.0590    0.9210 n         1 MOL     -0.017167
     54 C17         7.2380    1.5820    0.2760 c3        1 MOL     -0.394234
     55 C18         7.6830    0.1520    0.6630 c         1 MOL      0.548311
     56 O9          8.8780   -0.2220    0.6220 o         1 MOL     -0.588116
     57 H25         5.2190    2.2030    0.3410 hn        1 MOL      0.124555
     58 H26         8.1360    2.1300    0.5700 h1        1 MOL      0.152077
     59 H27         7.0620    1.4720   -0.7960 h1        1 MOL      0.152077
     60 N6          6.7430   -0.6720    1.1250 n         1 MOL     -0.172524
     61 C19         6.8970   -2.0090    1.7340 c3        1 MOL     -0.143429
     62 C20         7.0300   -3.0470    0.5610 c         1 MOL      0.426145
     63 O10         7.2570   -4.2020    0.8240 o         1 MOL     -0.512957
     64 C21         5.8350   -2.3490    2.8220 c3        1 MOL     -0.024888
     65 C22         4.4080   -2.0890    2.3670 c         1 MOL      0.438415
     66 O11         4.0540   -2.1700    1.1630 o         1 MOL     -0.624566
     67 O12         3.6060   -1.8020    3.3080 o         1 MOL     -0.624566
     68 H28         5.7700   -0.4250    1.0390 hn        1 MOL      0.159323
     69 H29         7.8840   -2.0360    2.1950 h1        1 MOL      0.114097
     70 H30         6.0820   -1.7710    3.7140 hc        1 MOL      0.058988
     71 H31         6.0410   -3.3680    3.1410 hc        1 MOL      0.058988
     72 N7          6.7370   -2.6770   -0.6860 n         1 MOL     -0.164735
     73 C23         6.7170   -3.5110   -1.8320 c3        1 MOL     -0.164671
     74 C24         5.3660   -4.2570   -2.0580 c         1 MOL      0.577972
     75 O13         5.3600   -5.3930   -2.5260 o         1 MOL     -0.581144
     76 H32         6.4600   -1.7210   -0.8790 hn        1 MOL      0.231343
     77 H33         7.4740   -4.2940   -1.7360 h1        1 MOL      0.068811
     78 H34         6.8350   -2.9020   -2.7240 h1        1 MOL      0.068811
     79 N8          4.3640   -3.6790   -1.4320 n         1 MOL     -0.307986
     80 C25         2.9410   -4.1290   -1.3830 c3        1 MOL     -0.091142
     81 C26         1.8690   -2.9750   -1.4010 c         1 MOL      0.467798
     82 O14         2.1410   -1.9590   -0.7560 o         1 MOL     -0.584769
     83 C27         2.5770   -4.9600   -0.0810 c3        1 MOL      0.548236
     84 C28         2.7130   -6.5110   -0.3650 c3        1 MOL     -0.592629
     85 O15         3.4870   -4.6530    0.9570 oh        1 MOL     -0.714848
     86 H35         4.5320   -2.8140   -0.9310 hn        1 MOL      0.244027
     87 H36         2.8140   -4.6990   -2.3010 h1        1 MOL      0.045740
     88 H37         1.5590   -4.7110    0.1970 h1        1 MOL     -0.104708
     89 H38         3.6200   -3.7010    0.9370 ho        1 MOL      0.557023
     90 H39         2.2980   -6.9610    0.5260 hc        1 MOL      0.152861
     91 H40         2.1360   -6.8770   -1.2180 hc        1 MOL      0.152861
     92 H41         3.7580   -6.7620   -0.5440 hc        1 MOL      0.152861
     93 N9          0.7350   -3.1680   -2.0000 n         1 MOL     -0.435747
     94 C29        -0.4550   -2.3070   -2.1450 c3        1 MOL     -0.003989
     95 C30        -1.7430   -3.0030   -1.6030 c         1 MOL      0.406885
     96 O16        -1.9990   -4.1860   -1.9120 o         1 MOL     -0.549180
     97 C31        -0.6130   -2.0250   -3.6250 c3        1 MOL      0.178685
     98 C32         0.5840   -1.3780   -4.3740 c3        1 MOL      0.142438
     99 C33        -1.8390   -1.0430   -3.6700 c3        1 MOL     -0.570273
    100 C34         0.4380   -1.4390   -5.8970 c3        1 MOL     -0.132988
    101 H42         0.7160   -4.0540   -2.4910 hn        1 MOL      0.269124
    102 H43        -0.3700   -1.3510   -1.6110 h1        1 MOL      0.100546
    103 H44        -0.8540   -2.9990   -4.0400 hc        1 MOL      0.007928
    104 H45         1.5200   -1.9260   -4.2690 hc        1 MOL     -0.007030
    105 H46         0.6690   -0.3320   -4.0580 hc        1 MOL     -0.007030
    106 H47        -1.5350   -0.0750   -3.2500 hc        1 MOL      0.121368
    107 H48        -2.1800   -0.8110   -4.6740 hc        1 MOL      0.121368
    108 H49        -2.7970   -1.4500   -3.3680 hc        1 MOL      0.121368
    109 H50         0.5180   -2.4540   -6.2830 hc        1 MOL      0.022511
    110 H51        -0.5260   -1.0730   -6.2590 hc        1 MOL      0.022511
    111 H52         1.2700   -0.8250   -6.2430 hc        1 MOL      0.022511
    112 N10        -2.4150   -2.4030   -0.6280 n         1 MOL     -0.075318
    113 C35        -3.6250   -2.8100    0.0360 c3        1 MOL     -0.045774
    114 C36        -4.9120   -2.2790   -0.6390 c         1 MOL      0.370587
    115 O17        -4.8070   -1.4000   -1.4680 o         1 MOL     -0.362292
    116 C37        -3.4680   -2.3480    1.4980 c3        1 MOL      0.152370
    117 C38        -2.2590   -2.8790    2.2600 c3        1 MOL     -0.499312
    118 O18        -3.5080   -0.9520    1.4490 oh        1 MOL     -0.344074
    119 H53        -2.0620   -1.5230   -0.2960 hn        1 MOL      0.379428
    120 H54        -3.6480   -3.8930   -0.0310 h1        1 MOL      0.070287
    121 H55        -4.3120   -2.6580    2.1100 h1        1 MOL     -0.011468
    122 H56        -3.2280   -0.5950    2.2900 ho        1 MOL      0.337340
    123 H57        -2.1690   -2.4380    3.2510 hc        1 MOL      0.123283
    124 H58        -2.3260   -3.9650    2.3360 hc        1 MOL      0.123283
    125 H59        -1.3420   -2.5980    1.7270 hc        1 MOL      0.123283
    126 N11        -6.0550   -2.8470   -0.2930 n         1 MOL     -0.192528
    127 C39        -7.3780   -2.5030   -0.7420 c3        1 MOL     -0.319890
    128 C40        -7.6710   -1.0540   -0.3980 c         1 MOL      0.420842
    129 O19        -8.2300   -0.3250   -1.2130 o         1 MOL     -0.463696
    130 C41        -8.4300   -3.3720   -0.0480 c3        1 MOL      0.458705
    131 C42        -9.8420   -3.1640   -0.7130 c3        1 MOL     -0.505056
    132 O20        -8.1280   -4.7310   -0.3980 oh        1 MOL     -0.540146
    133 H60        -6.0400   -3.6730    0.2820 hn        1 MOL      0.179672
    134 H61        -7.3680   -2.6970   -1.8150 h1        1 MOL      0.212020
    135 H62        -8.4760   -3.0780    0.9990 h1        1 MOL     -0.051810
    136 H63        -8.0300   -5.1340    0.4670 ho        1 MOL      0.360214
    137 H64       -10.4320   -3.9440   -0.2500 hc        1 MOL      0.145521
    138 H65       -10.3870   -2.2340   -0.5630 hc        1 MOL      0.145521
    139 H66        -9.7250   -3.3750   -1.7880 hc        1 MOL      0.145521
    140 N12        -7.1700   -0.5810    0.7420 n         1 MOL     -0.239777
    141 C43        -7.1680    0.8380    1.0510 c3        1 MOL     -0.353855
    142 C44        -6.2220    1.5950    0.1400 c         1 MOL      0.478486
    143 O21        -6.5750    2.6330   -0.3670 o         1 MOL     -0.517379
    144 C45        -6.8920    1.0310    2.5340 c3        1 MOL      0.248142
    145 C46        -7.8260    0.3700    3.5520 c3        1 MOL     -0.092769
    146 C47        -7.5430    0.5880    5.0680 c3        1 MOL      0.144976
    147 C48        -8.5240   -0.1660    5.9240 c3        1 MOL      0.033448
    148 N13        -8.0890   -0.1530    7.3980 n4        1 MOL     -0.199402
    149 H67        -6.6860   -1.2610    1.3080 hn        1 MOL      0.205271
    150 H68        -8.2130    1.1260    0.9800 h1        1 MOL      0.189671
    151 H69        -6.7700    2.1080    2.7050 hc        1 MOL     -0.029234
    152 H70        -5.8510    0.7870    2.7660 hc        1 MOL     -0.029234
    153 H71        -7.7860   -0.7210    3.4480 hc        1 MOL      0.021276
    154 H72        -8.8210    0.7750    3.3800 hc        1 MOL      0.021276
    155 H73        -7.4900    1.6580    5.2910 hc        1 MOL     -0.025447
    156 H74        -6.5600    0.1320    5.1450 hc        1 MOL     -0.025447
    157 H75        -8.5630   -1.1630    5.4900 hx        1 MOL      0.066597
    158 H76        -9.5190    0.2500    5.8290 hx        1 MOL      0.066597
    159 H77        -8.8010   -0.4500    8.0400 hn        1 MOL      0.232131
    160 H78        -7.1920   -0.5740    7.5820 hn        1 MOL      0.232131
    161 H79        -7.9720    0.8230    7.6040 hn        1 MOL      0.232131
    162 N14        -5.0030    1.2180   -0.0720 n         1 MOL     -0.009492
    163 C49        -4.0330    1.9250   -0.9670 c3        1 MOL     -0.210437
    164 C50        -4.5320    2.1750   -2.3990 c         1 MOL      0.424427
    165 O22        -4.2630    3.2240   -3.0030 o         1 MOL     -0.525763
    166 C51        -2.7060    1.1730   -1.0590 c3        1 MOL     -0.078561
    167 C52        -1.8940    1.6530    0.1410 c3        1 MOL     -0.044830
    168 C53        -0.6330    0.8260    0.4450 c         1 MOL      0.712470
    169 O23         0.3820    1.4470    0.7450 o         1 MOL     -0.800652
    170 O24        -0.6820   -0.4070    0.5510 o         1 MOL     -0.800652
    171 H80        -4.7120    0.3170    0.2730 hn        1 MOL      0.014352
    172 H81        -3.8220    2.9260   -0.5880 h1        1 MOL      0.111531
    173 H82        -2.1620    1.5250   -1.9330 hc        1 MOL      0.060605
    174 H83        -2.8780    0.0970   -0.9740 hc        1 MOL      0.060605
    175 H84        -2.5490    1.6670    1.0110 hc        1 MOL     -0.004915
    176 H85        -1.6570    2.7150    0.0410 hc        1 MOL     -0.004915
    177 N15        -5.2920    1.1850   -2.9880 n         1 MOL     -0.081589
    178 C54        -5.9700    1.2300   -4.2680 c3        1 MOL     -0.288327
    179 H86        -6.9880    1.5940   -4.1270 h1        1 MOL      0.107642
    180 H87        -5.4350    1.9010   -4.9400 h1        1 MOL      0.107642
    181 H88        -5.9990    0.2300   -4.7000 h1        1 MOL      0.107642
    182 H89        -5.3220    0.3230   -2.4590 hn        1 MOL      0.176769
    183 Ca1         1.8650   -0.5550    1.4810 Ca        1 MOL      1.747373
    184 O25         0.1940   -0.6820    3.5170 oh        1 MOL     -0.806883
    185 H90         0.1470   -0.8180    4.4620 ho        1 MOL      0.399462
    186 H91        -0.7020   -0.7850    3.2020 ho        1 MOL      0.399462
    187 O26         1.0310   -2.9720    2.3710 oh        1 MOL     -0.806883
    188 H92         0.3430   -3.6250    2.2690 ho        1 MOL      0.399462
    189 H93         1.5600   -3.3030    3.1060 ho        1 MOL      0.399462
@<TRIPOS>BOND
     1    1    2 1   
     2    1    4 1   
     3    1    5 1   
     4    1    6 1   
     5    2    3 2   
     6    2    7 1   
     7    7    8 1   
     8    7   15 1   
     9    8    9 1   
    10    8   11 1   
    11    8   16 1   
    12    9   10 2   
    13    9   19 1   
    14   11   12 1   
    15   11   17 1   
    16   11   18 1   
    17   12   13 1   
    18   12   14 1   
    19   19   20 1   
    20   19   28 1   
    21   20   21 1   
    22   20   23 1   
    23   20   29 1   
    24   21   22 2   
    25   21   41 1   
    26   23   24 1   
    27   23   30 1   
    28   23   31 1   
    29   24   25 1   
    30   24   32 1   
    31   24   33 1   
    32   25   26 1   
    33   25   34 1   
    34   25   35 1   
    35   26   27 1   
    36   26   36 1   
    37   26   37 1   
    38   27   38 1   
    39   27   39 1   
    40   27   40 1   
    41   41   42 1   
    42   41   49 1   
    43   42   43 1   
    44   42   45 1   
    45   42   50 1   
    46   43   44 2   
    47   43   53 1   
    48   45   46 1   
    49   45   51 1   
    50   45   52 1   
    51   46   47 1   
    52   46   48 1   
    53   53   54 1   
    54   53   57 1   
    55   54   55 1   
    56   54   58 1   
    57   54   59 1   
    58   55   56 2   
    59   55   60 1   
    60   60   61 1   
    61   60   68 1   
    62   61   62 1   
    63   61   64 1   
    64   61   69 1   
    65   62   63 2   
    66   62   72 1   
    67   64   65 1   
    68   64   70 1   
    69   64   71 1   
    70   65   66 1   
    71   65   67 1   
    72   72   73 1   
    73   72   76 1   
    74   73   74 1   
    75   73   77 1   
    76   73   78 1   
    77   74   75 2   
    78   74   79 1   
    79   79   80 1   
    80   79   86 1   
    81   80   81 1   
    82   80   83 1   
    83   80   87 1   
    84   81   82 2   
    85   81   93 1   
    86   83   84 1   
    87   83   85 1   
    88   83   88 1   
    89   84   90 1   
    90   84   91 1   
    91   84   92 1   
    92   85   89 1   
    93   93   94 1   
    94   93  101 1   
    95   94   95 1   
    96   94   97 1   
    97   94  102 1   
    98   95   96 2   
    99   95  112 1   
   100   97   98 1   
   101   97   99 1   
   102   97  103 1   
   103   98  100 1   
   104   98  104 1   
   105   98  105 1   
   106   99  106 1   
   107   99  107 1   
   108   99  108 1   
   109  100  109 1   
   110  100  110 1   
   111  100  111 1   
   112  112  113 1   
   113  112  119 1   
   114  113  114 1   
   115  113  116 1   
   116  113  120 1   
   117  114  115 2   
   118  114  126 1   
   119  116  117 1   
   120  116  118 1   
   121  116  121 1   
   122  117  123 1   
   123  117  124 1   
   124  117  125 1   
   125  118  122 1   
   126  126  127 1   
   127  126  133 1   
   128  127  128 1   
   129  127  130 1   
   130  127  134 1   
   131  128  129 2   
   132  128  140 1   
   133  130  131 1   
   134  130  132 1   
   135  130  135 1   
   136  131  137 1   
   137  131  138 1   
   138  131  139 1   
   139  132  136 1   
   140  140  141 1   
   141  140  149 1   
   142  141  142 1   
   143  141  144 1   
   144  141  150 1   
   145  142  143 2   
   146  142  162 1   
   147  144  145 1   
   148  144  151 1   
   149  144  152 1   
   150  145  146 1   
   151  145  153 1   
   152  145  154 1   
   153  146  147 1   
   154  146  155 1   
   155  146  156 1   
   156  147  148 1   
   157  147  157 1   
   158  147  158 1   
   159  148  159 1   
   160  148  160 1   
   161  148  161 1   
   162  162  163 1   
   163  162  171 1   
   164  163  164 1   
   165  163  166 1   
   166  163  172 1   
   167  164  165 2   
   168  164  177 1   
   169  166  167 1   
   170  166  173 1   
   171  166  174 1   
   172  167  168 1   
   173  167  175 1   
   174  167  176 1   
   175  168  169 1   
   176  168  170 1   
   177  177  178 1   
   178  177  182 1   
   179  178  179 1   
   180  178  180 1   
   181  178  181 1   
   182  184  185 1   
   183  184  186 1   
   184  187  188 1   
   185  187  189 1   
@<TRIPOS>SUBSTRUCTURE
     1 MOL         1 TEMP              0 ****  ****    0 ROOT
