@<TRIPOS>MOLECULE
MOL
  175   173     1     0     0
SMALL
resp


@<TRIPOS>ATOM
      1 C1          0.5850    4.3950    5.2640 c3        1 MOL     -0.326214
      2 C2         -0.2020    4.1900    3.9590 c         1 MOL      0.695210
      3 O1          0.3780    4.2800    2.8560 o         1 MOL     -0.572486
      4 H1          0.5850    5.4530    5.5250 hc        1 MOL      0.084302
      5 H2          0.1170    3.8230    6.0650 hc        1 MOL      0.084302
      6 H3          1.6120    4.0540    5.1270 hc        1 MOL      0.084302
      7 N1         -1.4750    3.7760    3.8910 n         1 MOL     -0.648033
      8 C3         -2.1750    3.5500    2.6630 c3        1 MOL      0.115720
      9 C4         -2.4460    4.8280    1.7500 c         1 MOL      0.647045
     10 O2         -2.7700    5.9070    2.2390 o         1 MOL     -0.603015
     11 C5         -3.4660    2.8250    3.0720 c3        1 MOL     -0.356917
     12 C6         -4.1200    2.2420    1.7880 c         1 MOL      0.691802
     13 O3         -5.3550    2.0590    1.7680 o         1 MOL     -0.665342
     14 O4         -3.3840    1.9320    0.7950 o         1 MOL     -0.665342
     15 H4         -2.0020    3.7080    4.7570 hn        1 MOL      0.322871
     16 H5         -1.5810    2.8380    2.0870 h1        1 MOL      0.126076
     17 H6         -4.1420    3.4930    3.5980 hc        1 MOL      0.084764
     18 H7         -3.1970    2.0190    3.7510 hc        1 MOL      0.084764
     19 N2         -2.2880    4.6590    0.4740 n         1 MOL     -0.419697
     20 C7         -2.6220    5.6700   -0.5460 c3        1 MOL      0.085624
     21 C8         -3.3090    5.1040   -1.7820 c         1 MOL      0.507603
     22 O5         -3.4270    5.8390   -2.8170 o         1 MOL     -0.562039
     23 C9         -1.3890    6.4680   -0.9700 c3        1 MOL     -0.098493
     24 H8         -1.8750    3.7760    0.2330 hn        1 MOL      0.263078
     25 H9         -3.2780    6.4060   -0.0840 h1        1 MOL      0.053483
     26 H10        -0.7420    6.7500   -0.1310 hc        1 MOL      0.029904
     27 H11        -0.7580    5.8470   -1.5940 hc        1 MOL      0.029904
     28 H12        -1.5900    7.3340   -1.5960 hc        1 MOL      0.029904
     29 N3         -3.8890    3.8730   -1.7030 n         1 MOL     -0.319299
     30 C10        -4.6410    3.2810   -2.8030 c3        1 MOL     -0.019681
     31 C11        -5.9770    2.5420   -2.3780 c         1 MOL      0.442474
     32 O6         -6.9480    2.5320   -3.0810 o         1 MOL     -0.540571
     33 C12        -3.7480    2.3340   -3.6800 c3        1 MOL     -0.101646
     34 C13        -2.9570    1.3030   -2.7960 c         1 MOL      0.701056
     35 O7         -3.5820    0.6710   -1.9300 o         1 MOL     -0.679326
     36 O8         -1.7670    1.1470   -3.0440 o         1 MOL     -0.679326
     37 H13        -3.7510    3.3440   -0.8440 hn        1 MOL      0.165673
     38 H14        -5.0780    4.0880   -3.3840 h1        1 MOL      0.078507
     39 H15        -3.0350    2.7950   -4.3660 hc        1 MOL      0.023318
     40 H16        -4.3430    1.7120   -4.3510 hc        1 MOL      0.023318
     41 N4         -6.0770    1.9710   -1.2140 n         1 MOL     -0.151991
     42 C14        -7.3010    1.2110   -0.8850 c3        1 MOL     -0.297122
     43 C15        -7.3850   -0.1680   -1.4820 c         1 MOL      0.458438
     44 O9         -8.4850   -0.6890   -1.7550 o         1 MOL     -0.582569
     45 H17        -5.3070    1.9070   -0.5700 hn        1 MOL      0.148976
     46 H18        -8.2050    1.6990   -1.2370 h1        1 MOL      0.140430
     47 H19        -7.2810    1.0900    0.2050 h1        1 MOL      0.140430
     48 N5         -6.2590   -0.8250   -1.8470 n         1 MOL     -0.034950
     49 C16        -6.2600   -2.2210   -2.3380 c3        1 MOL     -0.195592
     50 C17        -6.2890   -3.2930   -1.2490 c         1 MOL      0.476288
     51 O10        -6.3880   -4.4840   -1.5930 o         1 MOL     -0.549374
     52 C18        -4.9900   -2.3730   -3.2420 c3        1 MOL      0.029605
     53 C19        -3.7070   -2.2550   -2.4480 c         1 MOL      0.469777
     54 N6         -2.5580   -2.3130   -3.0600 n         1 MOL     -0.638409
     55 O11        -3.6580   -2.2610   -1.2160 o         1 MOL     -0.403714
     56 H20        -5.3840   -0.3210   -1.8390 hn        1 MOL      0.111226
     57 H21        -7.2060   -2.4170   -2.8440 h1        1 MOL      0.124873
     58 H22        -5.1110   -1.5670   -3.9740 hc        1 MOL      0.019210
     59 H23        -4.9610   -3.2970   -3.8250 hc        1 MOL      0.019210
     60 H24        -2.4840   -2.3790   -4.0670 hn        1 MOL      0.339264
     61 H25        -1.7520   -2.3420   -2.4500 hn        1 MOL      0.339264
     62 N7         -6.2050   -2.9060    0.0510 n         1 MOL     -0.169190
     63 C20        -6.5110   -3.7490    1.1460 c3        1 MOL     -0.162801
     64 C21        -5.2090   -4.3360    1.8140 c         1 MOL      0.513887
     65 O12        -5.2720   -5.2740    2.5860 o         1 MOL     -0.571269
     66 H26        -6.1750   -1.9040    0.1970 hn        1 MOL      0.182528
     67 H27        -7.2310   -4.4990    0.8240 h1        1 MOL      0.084381
     68 H28        -7.0890   -3.1520    1.8490 h1        1 MOL      0.084381
     69 N8         -4.0350   -3.8080    1.5310 n         1 MOL     -0.163644
     70 C22        -2.6720   -4.3970    1.7730 c3        1 MOL     -0.356022
     71 C23        -1.5420   -3.3230    1.8700 c         1 MOL      0.686143
     72 O13        -1.6490   -2.3320    1.1170 o         1 MOL     -0.680930
     73 C24        -2.2780   -5.3910    0.6400 c3        1 MOL      0.561181
     74 C25        -2.8990   -6.8070    0.6910 c3        1 MOL     -0.704442
     75 O14        -2.5630   -4.8910   -0.6410 oh        1 MOL     -0.562217
     76 H29        -4.0560   -3.0380    0.8730 hn        1 MOL      0.131650
     77 H30        -2.5660   -4.8680    2.7420 h1        1 MOL      0.136396
     78 H31        -1.1940   -5.5030    0.5970 h1        1 MOL     -0.024678
     79 H32        -2.7980   -3.9640   -0.5570 ho        1 MOL      0.301088
     80 H33        -2.8630   -7.1260    1.7270 hc        1 MOL      0.186375
     81 H34        -3.8910   -6.7240    0.2380 hc        1 MOL      0.186375
     82 H35        -2.2920   -7.3960    0.0010 hc        1 MOL      0.186375
     83 N9         -0.3510   -3.5690    2.4600 n         1 MOL     -0.491109
     84 C26         0.8240   -2.6800    2.4160 c3        1 MOL     -0.086078
     85 C27         1.6560   -3.0670    1.1990 c         1 MOL      0.660828
     86 O15         2.1570   -4.1950    1.0490 o         1 MOL     -0.632921
     87 C28         1.5660   -2.6130    3.7710 c3        1 MOL      0.233386
     88 C29         0.7060   -1.9840    4.8210 c3        1 MOL      0.106175
     89 C30         2.8130   -1.8680    3.6970 c3        1 MOL     -0.202058
     90 C31         1.2070   -2.1950    6.2650 c3        1 MOL     -0.165344
     91 H36        -0.3190   -4.3620    3.0790 hn        1 MOL      0.267007
     92 H37         0.5470   -1.6350    2.2390 h1        1 MOL      0.024656
     93 H38         1.8220   -3.6150    4.1120 hc        1 MOL     -0.026332
     94 H39        -0.3070   -2.3830    4.7650 hc        1 MOL     -0.029598
     95 H40         0.6080   -0.9130    4.6630 hc        1 MOL     -0.029598
     96 H41         3.4360   -2.3860    2.9720 hc        1 MOL      0.029185
     97 H42         2.5890   -0.8900    3.2720 hc        1 MOL      0.029185
     98 H43         3.3070   -1.8290    4.6740 hc        1 MOL      0.029185
     99 H44         1.5690   -3.2000    6.4620 hc        1 MOL      0.033580
    100 H45         2.0010   -1.4870    6.5050 hc        1 MOL      0.033580
    101 H46         0.3800   -2.0310    6.9460 hc        1 MOL      0.033580
    102 N10         1.9690   -2.1290    0.3310 n         1 MOL     -0.282131
    103 C32         2.7750   -2.3020   -0.8860 c3        1 MOL      0.024326
    104 C33         4.1560   -1.6750   -0.7200 c         1 MOL      0.516192
    105 O16         4.3520   -0.8620    0.1900 o         1 MOL     -0.453904
    106 C34         2.1180   -1.6480   -2.0990 c3        1 MOL     -0.165227
    107 C35         0.6420   -1.9510   -2.3880 c         1 MOL      0.662306
    108 O17        -0.2240   -1.5420   -1.5870 o         1 MOL     -0.669283
    109 O18         0.2900   -2.5000   -3.4390 o         1 MOL     -0.669283
    110 H47         1.7130   -1.1670    0.4850 hn        1 MOL      0.252346
    111 H48         2.9130   -3.3500   -1.1640 h1        1 MOL      0.084564
    112 H49         2.7070   -1.7690   -3.0070 hc        1 MOL      0.040835
    113 H50         2.0930   -0.5790   -1.9260 hc        1 MOL      0.040835
    114 N11         5.1050   -1.9270   -1.5850 n         1 MOL     -0.721909
    115 C36         6.4820   -1.5720   -1.2400 c3        1 MOL      0.388668
    116 C37         6.7730   -0.0480   -1.1400 c         1 MOL      0.327653
    117 O19         7.5580    0.2420   -0.2380 o         1 MOL     -0.477391
    118 C38         7.4560   -2.2420   -2.2670 c3        1 MOL     -0.277075
    119 C39         8.9620   -2.0680   -1.9250 ca        1 MOL      0.002642
    120 C40         9.4610   -2.4590   -0.7100 ca        1 MOL     -0.038745
    121 C41         9.7840   -1.3860   -2.8270 ca        1 MOL     -0.038745
    122 C42        10.8450   -2.1450   -0.3910 ca        1 MOL     -0.222342
    123 C43        11.1640   -1.2980   -2.6440 ca        1 MOL     -0.222342
    124 C44        11.6640   -1.6020   -1.4040 ca        1 MOL     -0.001308
    125 H51         5.0710   -2.6000   -2.3250 hn        1 MOL      0.355664
    126 H52         6.6290   -1.9040   -0.2060 h1        1 MOL      0.074475
    127 H53         7.1700   -1.9850   -3.2990 hc        1 MOL      0.086731
    128 H54         7.2830   -3.3110   -2.1890 hc        1 MOL      0.086731
    129 H55         8.7850   -2.9760   -0.0540 ha        1 MOL      0.079587
    130 H56         9.3270   -0.9580   -3.7040 ha        1 MOL      0.079587
    131 H57        11.2990   -2.3820    0.5610 ha        1 MOL      0.134030
    132 H58        11.7080   -0.7070   -3.3660 ha        1 MOL      0.134030
    133 H59        12.7100   -1.4500   -1.2100 ha        1 MOL      0.075553
    134 N12         6.3100    0.8820   -2.0100 n         1 MOL     -0.152577
    135 C45         6.5790    2.2720   -1.7830 c3        1 MOL      0.052305
    136 C46         5.8770    2.7530   -0.4990 c         1 MOL      0.340910
    137 O20         6.3920    3.6310    0.1960 o         1 MOL     -0.502699
    138 C47         6.0840    2.8840   -3.0420 c3        1 MOL     -0.104976
    139 C48         5.0330    2.0470   -3.6430 c3        1 MOL     -0.012163
    140 C49         5.3690    0.6820   -3.1750 c3        1 MOL     -0.002275
    141 H60         7.6290    2.5250   -1.7550 h1        1 MOL      0.067194
    142 H61         5.8170    3.9120   -2.8000 hc        1 MOL      0.045988
    143 H62         6.9970    2.9820   -3.6310 hc        1 MOL      0.045988
    144 H63         4.0710    2.3760   -3.2530 hc        1 MOL      0.030029
    145 H64         5.0600    2.1660   -4.7300 hc        1 MOL      0.030029
    146 H65         4.4710    0.1920   -2.7940 h1        1 MOL      0.050448
    147 H66         5.7910    0.1710   -4.0420 h1        1 MOL      0.050448
    148 N13         4.7320    2.2100   -0.1490 n         1 MOL     -0.113998
    149 C50         4.0930    2.4880    1.1680 c3        1 MOL     -0.267031
    150 C51         4.9270    1.9200    2.3440 c         1 MOL      0.462842
    151 O21         5.0400    2.6060    3.4300 o         1 MOL     -0.568355
    152 C52         2.7050    1.8180    1.1980 c3        1 MOL      0.084555
    153 C53         1.8240    2.2520    0.0450 c3        1 MOL     -0.041339
    154 C54         0.4730    1.6090    0.2400 c         1 MOL      0.425689
    155 O22         0.3370    0.5090    0.7890 o         1 MOL     -0.619558
    156 O23        -0.6300    2.0990   -0.2260 o         1 MOL     -0.619558
    157 H67         4.3020    1.5260   -0.7480 hn        1 MOL      0.207838
    158 H68         3.8900    3.5270    1.4210 h1        1 MOL      0.155518
    159 H69         2.1870    2.0870    2.1130 hc        1 MOL      0.024532
    160 H70         2.8140    0.7460    1.3470 hc        1 MOL      0.024532
    161 H71         2.2500    1.9980   -0.9260 hc        1 MOL      0.044411
    162 H72         1.7640    3.3470    0.0660 hc        1 MOL      0.044411
    163 N14         5.5440    0.7720    2.1750 n         1 MOL     -0.044921
    164 C55         6.4000    0.1620    3.1870 c3        1 MOL     -0.223701
    165 H73         6.4120    0.7890    4.0780 h1        1 MOL      0.085383
    166 H74         6.0130   -0.8240    3.4430 h1        1 MOL      0.085383
    167 H75         7.4130    0.0660    2.7960 h1        1 MOL      0.085383
    168 H76         5.5110    0.2840    1.2870 hn        1 MOL      0.099240
    169 Ca1        -1.9700   -0.1410   -0.1550 Ca        1 MOL      1.706957
    170 O24        -5.0380   -0.5630    0.9210 oh        1 MOL     -0.793696
    171 H77        -5.1910    0.3220    0.6080 ho        1 MOL      0.394933
    172 H78        -5.3990   -0.5660    1.8110 ho        1 MOL      0.394933
    173 O25        -1.5530    0.3300    2.6540 oh        1 MOL     -0.793696
    174 H79        -1.4300    0.4920    3.5870 ho        1 MOL      0.394933
    175 H80        -0.6830    0.4720    2.2730 ho        1 MOL      0.394933
@<TRIPOS>BOND
     1    1    2 1   
     2    1    4 1   
     3    1    5 1   
     4    1    6 1   
     5    2    3 2   
     6    2    7 1   
     7    7    8 1   
     8    7   15 1   
     9    8    9 1   
    10    8   11 1   
    11    8   16 1   
    12    9   10 2   
    13    9   19 1   
    14   11   12 1   
    15   11   17 1   
    16   11   18 1   
    17   12   13 1   
    18   12   14 1   
    19   19   20 1   
    20   19   24 1   
    21   20   21 1   
    22   20   23 1   
    23   20   25 1   
    24   21   22 2   
    25   21   29 1   
    26   23   26 1   
    27   23   27 1   
    28   23   28 1   
    29   29   30 1   
    30   29   37 1   
    31   30   31 1   
    32   30   33 1   
    33   30   38 1   
    34   31   32 2   
    35   31   41 1   
    36   33   34 1   
    37   33   39 1   
    38   33   40 1   
    39   34   35 1   
    40   34   36 1   
    41   41   42 1   
    42   41   45 1   
    43   42   43 1   
    44   42   46 1   
    45   42   47 1   
    46   43   44 2   
    47   43   48 1   
    48   48   49 1   
    49   48   56 1   
    50   49   50 1   
    51   49   52 1   
    52   49   57 1   
    53   50   51 2   
    54   50   62 1   
    55   52   53 1   
    56   52   58 1   
    57   52   59 1   
    58   53   54 1   
    59   53   55 2   
    60   54   60 1   
    61   54   61 1   
    62   62   63 1   
    63   62   66 1   
    64   63   64 1   
    65   63   67 1   
    66   63   68 1   
    67   64   65 2   
    68   64   69 1   
    69   69   70 1   
    70   69   76 1   
    71   70   71 1   
    72   70   73 1   
    73   70   77 1   
    74   71   72 2   
    75   71   83 1   
    76   73   74 1   
    77   73   75 1   
    78   73   78 1   
    79   74   80 1   
    80   74   81 1   
    81   74   82 1   
    82   75   79 1   
    83   83   84 1   
    84   83   91 1   
    85   84   85 1   
    86   84   87 1   
    87   84   92 1   
    88   85   86 2   
    89   85  102 1   
    90   87   88 1   
    91   87   89 1   
    92   87   93 1   
    93   88   90 1   
    94   88   94 1   
    95   88   95 1   
    96   89   96 1   
    97   89   97 1   
    98   89   98 1   
    99   90   99 1   
   100   90  100 1   
   101   90  101 1   
   102  102  103 1   
   103  102  110 1   
   104  103  104 1   
   105  103  106 1   
   106  103  111 1   
   107  104  105 2   
   108  104  114 1   
   109  106  107 1   
   110  106  112 1   
   111  106  113 1   
   112  107  108 1   
   113  107  109 1   
   114  114  115 1   
   115  114  125 1   
   116  115  116 1   
   117  115  118 1   
   118  115  126 1   
   119  116  117 2   
   120  116  134 1   
   121  118  119 1   
   122  118  127 1   
   123  118  128 1   
   124  119  120 ar  
   125  119  121 ar  
   126  120  122 ar  
   127  120  129 1   
   128  121  123 ar  
   129  121  130 1   
   130  122  124 ar  
   131  122  131 1   
   132  123  124 ar  
   133  123  132 1   
   134  124  133 1   
   135  134  135 1   
   136  134  140 1   
   137  135  136 1   
   138  135  138 1   
   139  135  141 1   
   140  136  137 2   
   141  136  148 1   
   142  138  139 1   
   143  138  142 1   
   144  138  143 1   
   145  139  140 1   
   146  139  144 1   
   147  139  145 1   
   148  140  146 1   
   149  140  147 1   
   150  148  149 1   
   151  148  157 1   
   152  149  150 1   
   153  149  152 1   
   154  149  158 1   
   155  150  151 2   
   156  150  163 1   
   157  152  153 1   
   158  152  159 1   
   159  152  160 1   
   160  153  154 1   
   161  153  161 1   
   162  153  162 1   
   163  154  155 1   
   164  154  156 1   
   165  163  164 1   
   166  163  168 1   
   167  164  165 1   
   168  164  166 1   
   169  164  167 1   
   170  170  171 1   
   171  170  172 1   
   172  173  174 1   
   173  173  175 1   
@<TRIPOS>SUBSTRUCTURE
     1 MOL         1 TEMP              0 ****  ****    0 ROOT
