@<TRIPOS>MOLECULE
MOL
  175   173     1     0     0
SMALL
resp


@<TRIPOS>ATOM
      1 C1          0.3320    3.9580    5.4690 c3        1 MOL     -0.434893
      2 C2         -0.2910    4.0720    4.0560 c         1 MOL      0.732077
      3 O1          0.3800    4.4160    3.0890 o         1 MOL     -0.556928
      4 H1         -0.3910    4.2940    6.2130 hc        1 MOL      0.105226
      5 H2          0.5980    2.9190    5.6660 hc        1 MOL      0.105226
      6 H3          1.2260    4.5790    5.5250 hc        1 MOL      0.105226
      7 N1         -1.5620    3.6850    3.9490 n         1 MOL     -0.691452
      8 C3         -2.2380    3.4390    2.7060 c3        1 MOL      0.212492
      9 C4         -2.2400    4.7520    1.8120 c         1 MOL      0.627618
     10 O2         -2.4580    5.8510    2.2900 o         1 MOL     -0.570564
     11 C5         -3.5080    2.8040    2.9950 c3        1 MOL     -0.442865
     12 C6         -4.3110    2.6220    1.7050 c         1 MOL      0.729816
     13 O3         -5.3250    3.3050    1.5280 o         1 MOL     -0.637989
     14 O4         -3.7790    1.9530    0.8440 o         1 MOL     -0.637989
     15 H4         -2.1770    3.5670    4.7400 hn        1 MOL      0.333141
     16 H5         -1.6320    2.7020    2.1760 h1        1 MOL      0.110964
     17 H6         -4.0970    3.5550    3.5210 hc        1 MOL      0.076506
     18 H7         -3.4180    1.8700    3.5410 hc        1 MOL      0.076506
     19 N2         -2.1220    4.4680    0.5160 n         1 MOL     -0.473783
     20 C7         -2.3900    5.3090   -0.5910 c3        1 MOL      0.341904
     21 C8         -3.3810    4.8890   -1.6760 c         1 MOL      0.542790
     22 O5         -3.5430    5.6050   -2.6350 o         1 MOL     -0.598764
     23 C9         -1.0420    5.6860   -1.1970 c3        1 MOL     -0.369197
     24 H8         -1.8780    3.5100    0.3000 hn        1 MOL      0.263304
     25 H9         -2.8260    6.2130   -0.1590 h1        1 MOL     -0.013641
     26 H10        -1.1380    6.2110   -2.1400 hc        1 MOL      0.081850
     27 H11        -0.4930    6.2960   -0.4640 hc        1 MOL      0.081850
     28 H12        -0.4820    4.7910   -1.4600 hc        1 MOL      0.081850
     29 N3         -4.2230    3.8770   -1.5140 n         1 MOL     -0.373336
     30 C10        -5.1120    3.2880   -2.6010 c3        1 MOL     -0.042329
     31 C11        -6.1850    2.3430   -2.0310 c         1 MOL      0.436464
     32 O6         -7.0060    1.9400   -2.8730 o         1 MOL     -0.560264
     33 C12        -4.1180    2.6480   -3.5800 c3        1 MOL      0.023150
     34 C13        -3.1140    1.6010   -3.0360 c         1 MOL      0.639364
     35 O7         -2.0090    1.3660   -3.6420 o         1 MOL     -0.660671
     36 O8         -3.4610    0.8140   -2.0720 o         1 MOL     -0.660671
     37 H13        -4.0890    3.3740   -0.6460 hn        1 MOL      0.137828
     38 H14        -5.5910    4.1210   -3.1140 h1        1 MOL      0.109992
     39 H15        -3.4370    3.3640   -4.0350 hc        1 MOL     -0.002321
     40 H16        -4.5910    2.1710   -4.4330 hc        1 MOL     -0.002321
     41 N4         -6.2500    2.0620   -0.6850 n         1 MOL     -0.120195
     42 C14        -7.3890    1.2970   -0.0890 c3        1 MOL     -0.187085
     43 C15        -7.3770   -0.1700   -0.6290 c         1 MOL      0.440897
     44 O9         -8.4410   -0.8210   -0.4800 o         1 MOL     -0.609079
     45 H17        -5.4310    2.2310   -0.1290 hn        1 MOL      0.073599
     46 H18        -8.2490    1.9180   -0.3660 h1        1 MOL      0.115325
     47 H19        -7.2980    1.4400    0.9990 h1        1 MOL      0.115325
     48 N5         -6.3130   -0.7530   -1.1860 n         1 MOL     -0.036447
     49 C16        -6.3040   -2.1030   -1.8280 c3        1 MOL     -0.088378
     50 C17        -6.1930   -3.3530   -0.9490 c         1 MOL      0.442181
     51 O10        -6.0430   -4.4720   -1.4160 o         1 MOL     -0.503570
     52 C18        -5.3480   -2.0010   -3.0020 c3        1 MOL     -0.151208
     53 C19        -3.8920   -2.0040   -2.6050 c         1 MOL      0.589386
     54 N6         -2.8880   -2.1120   -3.4760 n         1 MOL     -0.667952
     55 O11        -3.6460   -1.9710   -1.4020 o         1 MOL     -0.430767
     56 H20        -5.4400   -0.2770   -1.4000 hn        1 MOL      0.068043
     57 H21        -7.2760   -2.1240   -2.3210 h1        1 MOL      0.111663
     58 H22        -5.5650   -1.0290   -3.4410 hc        1 MOL      0.054696
     59 H23        -5.4920   -2.8460   -3.6790 hc        1 MOL      0.054696
     60 H24        -2.9490   -2.2650   -4.4710 hn        1 MOL      0.340778
     61 H25        -1.9680   -2.1600   -3.0590 hn        1 MOL      0.340778
     62 N7         -6.2200   -3.1900    0.3510 n         1 MOL     -0.255474
     63 C20        -6.0220   -4.3090    1.2990 c3        1 MOL     -0.260494
     64 C21        -4.5870   -4.8100    1.4510 c         1 MOL      0.493084
     65 O12        -4.4230   -5.8990    2.0870 o         1 MOL     -0.598223
     66 H26        -6.3400   -2.2610    0.7100 hn        1 MOL      0.241159
     67 H27        -6.7120   -5.0930    0.9770 h1        1 MOL      0.131185
     68 H28        -6.2530   -3.9270    2.2860 h1        1 MOL      0.131185
     69 N8         -3.5750   -4.1430    0.9930 n         1 MOL     -0.157141
     70 C22        -2.1770   -4.6140    1.1090 c3        1 MOL     -0.107467
     71 C23        -1.2470   -3.4050    1.3400 c         1 MOL      0.416548
     72 O13        -1.5150   -2.3040    0.8770 o         1 MOL     -0.339434
     73 C24        -1.7470   -5.3380   -0.1600 c3        1 MOL      0.520138
     74 C25        -2.4720   -6.6080   -0.5050 c3        1 MOL     -0.540981
     75 O14        -1.8700   -4.4580   -1.2740 oh        1 MOL     -0.588423
     76 H29        -3.7130   -3.2760    0.5110 hn        1 MOL      0.114258
     77 H30        -2.0230   -5.2420    1.9810 h1        1 MOL      0.063782
     78 H31        -0.7000   -5.5980   -0.0410 h1        1 MOL     -0.036373
     79 H32        -1.2860   -3.7210   -1.0710 ho        1 MOL      0.305889
     80 H33        -2.2510   -7.4310    0.1760 hc        1 MOL      0.140929
     81 H34        -3.5590   -6.5110   -0.4680 hc        1 MOL      0.140929
     82 H35        -2.3490   -6.8720   -1.5550 hc        1 MOL      0.140929
     83 N9         -0.1490   -3.7650    2.0020 n         1 MOL     -0.652823
     84 C26         1.0320   -2.8620    2.0110 c3        1 MOL      0.019620
     85 C27         1.7470   -3.1380    0.6920 c         1 MOL      0.466653
     86 O15         2.2720   -4.2740    0.4540 o         1 MOL     -0.582664
     87 C28         2.0430   -3.0500    3.2230 c3        1 MOL      0.199895
     88 C29         1.3120   -3.3030    4.5580 c3        1 MOL      0.056181
     89 C30         2.9200   -1.7870    3.4250 c3        1 MOL     -0.504515
     90 C31         2.2620   -3.7210    5.6090 c3        1 MOL     -0.366413
     91 H36        -0.1380   -4.6230    2.5250 hn        1 MOL      0.380512
     92 H37         0.5860   -1.8640    1.9340 h1        1 MOL      0.048432
     93 H38         2.7100   -3.8840    3.0020 hc        1 MOL      0.004873
     94 H39         0.6290   -4.1550    4.4370 hc        1 MOL      0.011952
     95 H40         0.9070   -2.3360    4.8670 hc        1 MOL      0.011952
     96 H41         3.6510   -1.7680    4.2350 hc        1 MOL      0.134218
     97 H42         3.3500   -1.6320    2.4270 hc        1 MOL      0.134218
     98 H43         2.2360   -0.9660    3.6490 hc        1 MOL      0.134218
     99 H44         1.7680   -3.9830    6.5510 hc        1 MOL      0.088311
    100 H45         2.8350   -4.5550    5.1860 hc        1 MOL      0.088311
    101 H46         2.8430   -2.8730    5.9580 hc        1 MOL      0.088311
    102 N10         1.8040   -2.0740   -0.1440 n         1 MOL     -0.128080
    103 C32         2.5940   -2.0050   -1.3530 c3        1 MOL      0.085456
    104 C33         4.0870   -1.5500   -1.0560 c         1 MOL      0.401584
    105 O16         4.2820   -1.0350    0.0380 o         1 MOL     -0.334695
    106 C34         1.9350   -0.9870   -2.2830 c3        1 MOL     -0.235910
    107 C35         0.4100   -1.2940   -2.4600 c         1 MOL      0.590216
    108 O17         0.0290   -1.7620   -3.5680 o         1 MOL     -0.624420
    109 O18        -0.4240   -1.1410   -1.4780 o         1 MOL     -0.624420
    110 H47         1.1740   -1.3130    0.1010 hn        1 MOL      0.177062
    111 H48         2.6000   -3.0010   -1.8000 h1        1 MOL      0.053164
    112 H49         2.4800   -1.0590   -3.2240 hc        1 MOL      0.095359
    113 H50         1.9150    0.0370   -1.9000 hc        1 MOL      0.095359
    114 N11         5.1230   -1.7090   -1.9050 n         1 MOL     -0.711372
    115 C36         6.4790   -1.3190   -1.4110 c3        1 MOL      0.458900
    116 C37         6.6240    0.1750   -1.0780 c         1 MOL      0.377874
    117 O19         7.2990    0.6140   -0.1430 o         1 MOL     -0.496349
    118 C38         7.4800   -1.8470   -2.4640 c3        1 MOL     -0.234721
    119 C39         8.9570   -1.5900   -2.1160 ca        1 MOL      0.093646
    120 C40         9.7480   -0.8590   -3.0370 ca        1 MOL     -0.209182
    121 C41         9.4000   -1.8400   -0.7640 ca        1 MOL     -0.209182
    122 C42        11.0750   -0.4500   -2.6980 ca        1 MOL     -0.077532
    123 C43        10.7240   -1.4830   -0.5490 ca        1 MOL     -0.077532
    124 C44        11.5560   -0.8400   -1.4340 ca        1 MOL     -0.118190
    125 H51         5.0200   -1.9940   -2.8680 hn        1 MOL      0.359345
    126 H52         6.7100   -1.8500   -0.4860 h1        1 MOL      0.048975
    127 H53         7.3040   -1.3690   -3.4180 hc        1 MOL      0.070289
    128 H54         7.3790   -2.9210   -2.6310 hc        1 MOL      0.070289
    129 H55         9.3700   -0.5220   -3.9950 ha        1 MOL      0.137452
    130 H56         8.8720   -2.3570    0.0240 ha        1 MOL      0.137452
    131 H57        11.7360    0.0900   -3.3590 ha        1 MOL      0.098250
    132 H58        11.2730   -1.6660    0.3660 ha        1 MOL      0.098250
    133 H59        12.5720   -0.7600   -1.0950 ha        1 MOL      0.096353
    134 N12         5.8920    1.1070   -1.7510 n         1 MOL     -0.096135
    135 C45         5.8170    2.5910   -1.5120 c3        1 MOL      0.103730
    136 C46         5.1900    2.9290   -0.2010 c         1 MOL      0.200035
    137 O20         5.2820    4.1150    0.2510 o         1 MOL     -0.526454
    138 C47         5.1140    3.2860   -2.6860 c3        1 MOL     -0.163493
    139 C48         5.5430    2.3740   -3.8130 c3        1 MOL      0.198212
    140 C49         5.4540    0.9740   -3.1880 c3        1 MOL     -0.172150
    141 H60         6.8280    2.9970   -1.4390 h1        1 MOL      0.079604
    142 H61         4.0340    3.2140   -2.5760 hc        1 MOL      0.087423
    143 H62         5.5400    4.2750   -2.8530 hc        1 MOL      0.087423
    144 H63         4.9650    2.5470   -4.7150 hc        1 MOL     -0.033562
    145 H64         6.6050    2.5680   -3.9720 hc        1 MOL     -0.033562
    146 H65         4.3890    0.7330   -3.1660 h1        1 MOL      0.050109
    147 H66         6.0800    0.2310   -3.6760 h1        1 MOL      0.050109
    148 N13         4.6670    1.9780    0.5560 n         1 MOL      0.032002
    149 C50         3.9930    2.0870    1.8600 c3        1 MOL     -0.081662
    150 C51         4.7520    1.3180    2.8890 c         1 MOL      0.390825
    151 O21         4.7240    1.6790    4.0640 o         1 MOL     -0.551895
    152 C52         2.5260    1.4590    1.7010 c3        1 MOL      0.009468
    153 C53         1.6500    2.0830    0.6280 c3        1 MOL      0.031946
    154 C54         0.2540    1.4540    0.4830 c         1 MOL      0.559032
    155 O22        -0.6590    2.0570   -0.1190 o         1 MOL     -0.699329
    156 O23         0.0630    0.3320    0.9550 o         1 MOL     -0.699329
    157 H67         4.6860    1.0450    0.1680 hn        1 MOL     -0.008185
    158 H68         4.0000    3.1470    2.1340 h1        1 MOL      0.130867
    159 H69         2.0630    1.6090    2.6830 hc        1 MOL      0.017296
    160 H70         2.5790    0.4020    1.4480 hc        1 MOL      0.017296
    161 H71         2.1920    2.0650   -0.3210 hc        1 MOL      0.018890
    162 H72         1.5090    3.0990    0.9820 hc        1 MOL      0.018890
    163 N14         5.6490    0.4820    2.3870 n         1 MOL      0.004515
    164 C55         6.6740   -0.2360    3.1910 c3        1 MOL     -0.193370
    165 H73         6.4810   -0.0740    4.2510 h1        1 MOL      0.075725
    166 H74         6.6270   -1.3030    2.9720 h1        1 MOL      0.075725
    167 H75         7.6640    0.1430    2.9410 h1        1 MOL      0.075725
    168 H76         5.5890    0.2340    1.4100 hn        1 MOL      0.014756
    169 Ca1        -2.2070   -0.0450   -0.0520 Ca        1 MOL      1.614856
    170 O24        -1.7390   -0.0880    2.7900 oh        1 MOL     -0.789180
    171 H77        -1.9160    0.2200    3.6770 ho        1 MOL      0.383559
    172 H78        -0.7990    0.0960    2.6610 ho        1 MOL      0.383559
    173 O25        -3.9830   -0.8880    1.6230 oh        1 MOL     -0.789180
    174 H79        -3.4920   -0.9030    2.4440 ho        1 MOL      0.383559
    175 H80        -4.9000   -0.8580    1.9030 ho        1 MOL      0.383559
@<TRIPOS>BOND
     1    1    2 1   
     2    1    4 1   
     3    1    5 1   
     4    1    6 1   
     5    2    3 2   
     6    2    7 1   
     7    7    8 1   
     8    7   15 1   
     9    8    9 1   
    10    8   11 1   
    11    8   16 1   
    12    9   10 2   
    13    9   19 1   
    14   11   12 1   
    15   11   17 1   
    16   11   18 1   
    17   12   13 1   
    18   12   14 1   
    19   19   20 1   
    20   19   24 1   
    21   20   21 1   
    22   20   23 1   
    23   20   25 1   
    24   21   22 2   
    25   21   29 1   
    26   23   26 1   
    27   23   27 1   
    28   23   28 1   
    29   29   30 1   
    30   29   37 1   
    31   30   31 1   
    32   30   33 1   
    33   30   38 1   
    34   31   32 2   
    35   31   41 1   
    36   33   34 1   
    37   33   39 1   
    38   33   40 1   
    39   34   35 1   
    40   34   36 1   
    41   41   42 1   
    42   41   45 1   
    43   42   43 1   
    44   42   46 1   
    45   42   47 1   
    46   43   44 2   
    47   43   48 1   
    48   48   49 1   
    49   48   56 1   
    50   49   50 1   
    51   49   52 1   
    52   49   57 1   
    53   50   51 2   
    54   50   62 1   
    55   52   53 1   
    56   52   58 1   
    57   52   59 1   
    58   53   54 1   
    59   53   55 2   
    60   54   60 1   
    61   54   61 1   
    62   62   63 1   
    63   62   66 1   
    64   63   64 1   
    65   63   67 1   
    66   63   68 1   
    67   64   65 2   
    68   64   69 1   
    69   69   70 1   
    70   69   76 1   
    71   70   71 1   
    72   70   73 1   
    73   70   77 1   
    74   71   72 2   
    75   71   83 1   
    76   73   74 1   
    77   73   75 1   
    78   73   78 1   
    79   74   80 1   
    80   74   81 1   
    81   74   82 1   
    82   75   79 1   
    83   83   84 1   
    84   83   91 1   
    85   84   85 1   
    86   84   87 1   
    87   84   92 1   
    88   85   86 2   
    89   85  102 1   
    90   87   88 1   
    91   87   89 1   
    92   87   93 1   
    93   88   90 1   
    94   88   94 1   
    95   88   95 1   
    96   89   96 1   
    97   89   97 1   
    98   89   98 1   
    99   90   99 1   
   100   90  100 1   
   101   90  101 1   
   102  102  103 1   
   103  102  110 1   
   104  103  104 1   
   105  103  106 1   
   106  103  111 1   
   107  104  105 2   
   108  104  114 1   
   109  106  107 1   
   110  106  112 1   
   111  106  113 1   
   112  107  108 1   
   113  107  109 1   
   114  114  115 1   
   115  114  125 1   
   116  115  116 1   
   117  115  118 1   
   118  115  126 1   
   119  116  117 2   
   120  116  134 1   
   121  118  119 1   
   122  118  127 1   
   123  118  128 1   
   124  119  120 ar  
   125  119  121 ar  
   126  120  122 ar  
   127  120  129 1   
   128  121  123 ar  
   129  121  130 1   
   130  122  124 ar  
   131  122  131 1   
   132  123  124 ar  
   133  123  132 1   
   134  124  133 1   
   135  134  135 1   
   136  134  140 1   
   137  135  136 1   
   138  135  138 1   
   139  135  141 1   
   140  136  137 2   
   141  136  148 1   
   142  138  139 1   
   143  138  142 1   
   144  138  143 1   
   145  139  140 1   
   146  139  144 1   
   147  139  145 1   
   148  140  146 1   
   149  140  147 1   
   150  148  149 1   
   151  148  157 1   
   152  149  150 1   
   153  149  152 1   
   154  149  158 1   
   155  150  151 2   
   156  150  163 1   
   157  152  153 1   
   158  152  159 1   
   159  152  160 1   
   160  153  154 1   
   161  153  161 1   
   162  153  162 1   
   163  154  155 1   
   164  154  156 1   
   165  163  164 1   
   166  163  168 1   
   167  164  165 1   
   168  164  166 1   
   169  164  167 1   
   170  170  171 1   
   171  170  172 1   
   172  173  174 1   
   173  173  175 1   
@<TRIPOS>SUBSTRUCTURE
     1 MOL         1 TEMP              0 ****  ****    0 ROOT
