@<TRIPOS>MOLECULE
MOL
  169   169     1     0     0
SMALL
resp


@<TRIPOS>ATOM
      1 C1          0.4370   -3.5490    5.8730 c3        1 MOL     -0.332083
      2 C2          0.8310   -3.2550    4.3550 c         1 MOL      0.681142
      3 O1          0.0730   -3.7490    3.5070 o         1 MOL     -0.571648
      4 H1         -0.3160   -4.3370    5.9060 hc        1 MOL      0.074784
      5 H2          1.3220   -3.8690    6.4230 hc        1 MOL      0.074784
      6 H3          0.0340   -2.6430    6.3260 hc        1 MOL      0.074784
      7 N1          1.8970   -2.4930    4.1600 n         1 MOL     -0.611044
      8 C3          2.4730   -2.1400    2.8510 c3        1 MOL      0.341564
      9 C4          2.9200   -3.3920    2.0410 c         1 MOL      0.408797
     10 O2          3.9610   -3.8680    2.3450 o         1 MOL     -0.520853
     11 C5          3.5550   -1.0770    3.0770 c3        1 MOL     -0.306708
     12 C6          4.2010   -0.7030    1.7510 c         1 MOL      0.773639
     13 O3          3.5020   -0.5490    0.7030 o         1 MOL     -0.706311
     14 O4          5.4770   -0.6510    1.7060 o         1 MOL     -0.706311
     15 H4          2.3400   -2.0950    4.9770 hn        1 MOL      0.305555
     16 H5          1.6800   -1.5600    2.3890 h1        1 MOL      0.031264
     17 H6          4.3390   -1.3970    3.7720 hc        1 MOL      0.062768
     18 H7          3.0630   -0.1380    3.3340 hc        1 MOL      0.062768
     19 N2          2.2080   -3.7860    0.9270 n         1 MOL     -0.162444
     20 C7          2.3960   -5.0930    0.3880 c3        1 MOL      0.169487
     21 C8          3.3390   -5.0360   -0.8230 c         1 MOL      0.377283
     22 O5          4.0740   -6.0100   -1.0950 o         1 MOL     -0.584058
     23 C9          0.9300   -5.3890   -0.1030 c3        1 MOL     -0.373360
     24 H8          1.4330   -3.2090    0.6290 hn        1 MOL      0.063188
     25 H9          2.8340   -5.7870    1.0930 h1        1 MOL      0.044072
     26 H10         0.2640   -5.4420    0.7640 hc        1 MOL      0.092863
     27 H11         0.5990   -4.6200   -0.8010 hc        1 MOL      0.092863
     28 H12         0.9950   -6.3050   -0.7040 hc        1 MOL      0.092863
     29 N3          3.4230   -3.9190   -1.5120 n         1 MOL     -0.178180
     30 C10         4.3890   -3.8200   -2.6560 c3        1 MOL     -0.016194
     31 C11         5.7620   -3.3620   -2.0870 c         1 MOL      0.399304
     32 O6          6.6910   -3.3980   -2.9290 o         1 MOL     -0.544164
     33 C12         3.8530   -2.7720   -3.7200 c3        1 MOL     -0.265730
     34 C13         3.3220   -1.4590   -3.0180 c         1 MOL      0.764960
     35 O7          2.2040   -0.9550   -3.2610 o         1 MOL     -0.750793
     36 O8          3.9810   -0.9330   -2.0820 o         1 MOL     -0.750793
     37 H13         2.8400   -3.1300   -1.2890 hn        1 MOL      0.233818
     38 H14         4.4650   -4.8280   -3.0790 h1        1 MOL      0.117799
     39 H15         2.9750   -3.2210   -4.1990 hc        1 MOL      0.072469
     40 H16         4.6330   -2.5630   -4.4610 hc        1 MOL      0.072469
     41 N4          5.9390   -2.9870   -0.8010 n         1 MOL     -0.115951
     42 C14         7.1220   -2.4520   -0.1580 c3        1 MOL     -0.357569
     43 C15         7.3720   -0.9430   -0.4680 c         1 MOL      0.669191
     44 O9          8.5310   -0.5660   -0.4830 o         1 MOL     -0.634417
     45 H17         5.1600   -3.0300   -0.1680 hn        1 MOL      0.167623
     46 H18         8.0230   -2.9470   -0.5130 h1        1 MOL      0.150957
     47 H19         6.9570   -2.5990    0.9080 h1        1 MOL      0.150957
     48 N5          6.4470   -0.0840   -0.9350 n         1 MOL     -0.198272
     49 C16         6.6650    1.2390   -1.3810 c3        1 MOL     -0.024804
     50 C17         6.5320    2.3470   -0.3900 c         1 MOL      0.375569
     51 O10         6.8430    3.5570   -0.6780 o         1 MOL     -0.544301
     52 C18         5.8610    1.4780   -2.6950 c3        1 MOL     -0.289560
     53 C19         4.4470    1.9320   -2.5690 c         1 MOL      0.700736
     54 N6          3.7790    2.1660   -3.6870 n         1 MOL     -0.713706
     55 O11         3.8940    2.1290   -1.4880 o         1 MOL     -0.516867
     56 H20         5.5120   -0.3300   -0.6480 hn        1 MOL      0.166034
     57 H21         7.7050    1.2260   -1.7200 h1        1 MOL      0.127994
     58 H22         5.8060    0.5860   -3.3190 hc        1 MOL      0.096679
     59 H23         6.4000    2.3170   -3.1280 hc        1 MOL      0.096679
     60 H24         4.2160    1.9560   -4.5730 hn        1 MOL      0.337431
     61 H25         2.8460    2.5390   -3.6510 hn        1 MOL      0.337431
     62 N7          6.2280    2.0630    0.8600 n         1 MOL     -0.209369
     63 C20         6.0250    3.0580    1.9140 c3        1 MOL     -0.074011
     64 C21         4.9170    4.0300    1.8100 c         1 MOL      0.468301
     65 O12         4.7840    4.9140    2.6650 o         1 MOL     -0.600289
     66 H26         6.0330    1.0970    1.0680 hn        1 MOL      0.223339
     67 H27         6.9410    3.6300    2.0820 h1        1 MOL      0.076797
     68 H28         5.9460    2.5180    2.8570 h1        1 MOL      0.076797
     69 N8          3.9980    3.9330    0.8760 n         1 MOL      0.036705
     70 C22         2.6850    4.6570    0.8450 c3        1 MOL     -0.437379
     71 C23         1.5600    3.6380    0.8940 c         1 MOL      0.738481
     72 O13         1.6950    2.5670    0.2620 o         1 MOL     -0.696172
     73 C24         2.6050    5.5860   -0.3550 c3        1 MOL      0.518185
     74 C25         3.4180    6.8230   -0.1290 c3        1 MOL     -0.528233
     75 O14         3.2270    5.0840   -1.5140 oh        1 MOL     -0.601252
     76 H29         4.0920    3.1960    0.1880 hn        1 MOL      0.060837
     77 H30         2.6210    5.3300    1.6980 h1        1 MOL      0.148486
     78 H31         1.6040    5.8690   -0.6760 h1        1 MOL      0.000890
     79 H32         2.7190    4.4160   -1.9790 ho        1 MOL      0.368065
     80 H33         4.4860    6.6030   -0.1880 hc        1 MOL      0.134895
     81 H34         3.0850    7.5200   -0.8970 hc        1 MOL      0.134895
     82 H35         3.1460    7.2730    0.8240 hc        1 MOL      0.134895
     83 N9          0.3210    3.9980    1.4140 n         1 MOL     -0.572437
     84 C26        -0.7980    3.1080    1.4530 c3        1 MOL      0.040129
     85 C27        -1.7190    3.3210    0.2450 c         1 MOL      0.546891
     86 O15        -2.1590    4.4030   -0.1250 o         1 MOL     -0.585654
     87 C28        -1.5660    3.1700    2.8020 c3        1 MOL      0.029522
     88 C29        -0.6630    2.7860    3.9530 c3        1 MOL      0.167254
     89 C30        -2.8840    2.3080    2.7990 c3        1 MOL     -0.277932
     90 C31        -1.3480    2.7790    5.3000 c3        1 MOL     -0.136152
     91 H36         0.1930    4.9330    1.7730 hn        1 MOL      0.304394
     92 H37        -0.4220    2.0930    1.3100 h1        1 MOL      0.125427
     93 H38        -1.8360    4.2070    3.0010 hc        1 MOL      0.013441
     94 H39         0.0940    3.5740    3.9820 hc        1 MOL     -0.033547
     95 H40        -0.1190    1.8640    3.7890 hc        1 MOL     -0.033547
     96 H41        -2.6350    1.2550    2.6310 hc        1 MOL      0.061073
     97 H42        -3.3690    2.2990    3.7760 hc        1 MOL      0.061073
     98 H43        -3.6070    2.6560    2.0740 hc        1 MOL      0.061073
     99 H44        -0.5610    2.7540    6.0600 hc        1 MOL      0.022816
    100 H45        -1.9350    3.6690    5.5260 hc        1 MOL      0.022816
    101 H46        -1.9030    1.8570    5.4710 hc        1 MOL      0.022816
    102 N10        -2.0050    2.1410   -0.3530 n         1 MOL     -0.272404
    103 C32        -2.9510    1.9900   -1.4230 c3        1 MOL      0.266377
    104 C33        -4.2880    1.4560   -0.9620 c         1 MOL      0.306050
    105 O16        -4.3950    0.8590    0.1300 o         1 MOL     -0.289851
    106 C34        -2.4090    1.1120   -2.5090 c3        1 MOL     -0.106603
    107 C35        -1.0470    1.5080   -3.0790 c         1 MOL      0.664258
    108 O17        -1.0350    2.3650   -3.9860 o         1 MOL     -0.688099
    109 O18        -0.0520    1.0160   -2.5520 o         1 MOL     -0.688099
    110 H47        -1.6250    1.2900    0.0170 hn        1 MOL      0.108159
    111 H48        -3.1310    2.9700   -1.8480 h1        1 MOL      0.021632
    112 H49        -3.1290    1.2860   -3.3070 hc        1 MOL     -0.009765
    113 H50        -2.3940    0.0910   -2.1220 hc        1 MOL     -0.009765
    114 N11        -5.4600    1.5440   -1.7020 n         1 MOL     -0.638995
    115 C36        -6.7390    1.0900   -1.2590 c3        1 MOL      0.309723
    116 C37        -6.9140   -0.4060   -0.8840 c         1 MOL      0.305068
    117 O19        -7.5710   -0.6790    0.1210 o         1 MOL     -0.439317
    118 C38        -7.8530    1.4890   -2.2780 c3        1 MOL     -0.175376
    119 C39        -9.2350    1.3360   -1.7080 ca        1 MOL      0.048941
    120 C40       -10.1550    0.3480   -2.1250 ca        1 MOL     -0.174876
    121 C41        -9.5280    2.1040   -0.5330 ca        1 MOL     -0.174876
    122 C42       -11.3690    0.1770   -1.5080 ca        1 MOL     -0.057388
    123 C43       -10.7490    1.9730    0.1480 ca        1 MOL     -0.057388
    124 C44       -11.6090    0.9710   -0.3740 ca        1 MOL     -0.176690
    125 H51        -5.4560    2.0520   -2.5750 hn        1 MOL      0.328069
    126 H52        -6.9630    1.5990   -0.3220 h1        1 MOL      0.081303
    127 H53        -7.7280    0.9180   -3.2030 hc        1 MOL      0.062965
    128 H54        -7.7320    2.5240   -2.6050 hc        1 MOL      0.062965
    129 H55        -9.8550   -0.3720   -2.8800 ha        1 MOL      0.112574
    130 H56        -8.7880    2.8400   -0.2540 ha        1 MOL      0.112574
    131 H57       -12.1020   -0.5160   -1.8950 ha        1 MOL      0.106891
    132 H58       -11.0690    2.5840    0.9800 ha        1 MOL      0.106891
    133 H59       -12.4920    0.8380    0.2250 ha        1 MOL      0.104069
    134 N12        -6.2370   -1.3500   -1.5920 n         1 MOL     -0.029732
    135 C45        -6.1780   -2.7700   -1.1690 c3        1 MOL     -0.017500
    136 C46        -5.4390   -3.0420    0.0840 c         1 MOL      0.310822
    137 O20        -5.6670   -4.0850    0.6370 o         1 MOL     -0.511537
    138 C47        -5.5220   -3.6160   -2.3310 c3        1 MOL     -0.007257
    139 C48        -5.7900   -2.7340   -3.5300 c3        1 MOL     -0.070211
    140 C49        -5.6970   -1.3040   -2.9160 c3        1 MOL     -0.017317
    141 H60        -7.2540   -2.9460   -1.0470 h1        1 MOL      0.064873
    142 H61        -4.4710   -3.7560   -2.0800 hc        1 MOL      0.041245
    143 H62        -6.0480   -4.5560   -2.5300 hc        1 MOL      0.041245
    144 H63        -5.0040   -2.8880   -4.2630 hc        1 MOL      0.033456
    145 H64        -6.7640   -2.7720   -4.0210 hc        1 MOL      0.033456
    146 H65        -4.6360   -1.0340   -2.8910 h1        1 MOL      0.031074
    147 H66        -6.1810   -0.5820   -3.5580 h1        1 MOL      0.031074
    148 N13        -4.5250   -2.1750    0.5090 n         1 MOL     -0.142797
    149 C50        -3.7890   -2.1770    1.8000 c3        1 MOL     -0.049290
    150 C51        -4.5760   -1.4760    2.9040 c         1 MOL      0.512290
    151 O21        -4.4490   -1.8020    4.0630 o         1 MOL     -0.568767
    152 C52        -2.4480   -1.4910    1.5890 c3        1 MOL     -0.025741
    153 C53        -1.5860   -2.0510    0.4690 c3        1 MOL     -0.060469
    154 C54        -0.2830   -1.2570    0.1770 c         1 MOL      0.668109
    155 O22         0.6720   -1.7870   -0.4630 o         1 MOL     -0.716155
    156 O23        -0.1290   -0.0630    0.3860 o         1 MOL     -0.716155
    157 H67        -4.2910   -1.3950   -0.1030 hn        1 MOL      0.209838
    158 H68        -3.5720   -3.1880    2.1510 h1        1 MOL      0.085746
    159 H69        -1.9060   -1.5150    2.5320 hc        1 MOL      0.046856
    160 H70        -2.6360   -0.4400    1.3560 hc        1 MOL      0.046856
    161 H71        -2.1830   -1.9620   -0.4380 hc        1 MOL      0.049356
    162 H72        -1.4620   -3.1250    0.5080 hc        1 MOL      0.049356
    163 N14        -5.4270   -0.5290    2.4690 n         1 MOL     -0.028265
    164 C55        -6.3150    0.2440    3.4110 c3        1 MOL     -0.292752
    165 H73        -7.2140   -0.3350    3.6200 h1        1 MOL      0.104931
    166 H74        -5.7800    0.4330    4.3420 h1        1 MOL      0.104931
    167 H75        -6.5940    1.1930    2.9520 h1        1 MOL      0.104931
    168 H76        -5.5290   -0.3770    1.4820 hn        1 MOL     -0.051834
    169 Ca1         1.9470    0.4070   -1.0510 Ca        1 MOL      1.685551
@<TRIPOS>BOND
     1    1    2 1   
     2    1    4 1   
     3    1    5 1   
     4    1    6 1   
     5    2    3 2   
     6    2    7 1   
     7    7    8 1   
     8    7   15 1   
     9    8    9 1   
    10    8   11 1   
    11    8   16 1   
    12    9   10 2   
    13    9   19 1   
    14   11   12 1   
    15   11   17 1   
    16   11   18 1   
    17   12   13 1   
    18   12   14 1   
    19   19   20 1   
    20   19   24 1   
    21   20   21 1   
    22   20   23 1   
    23   20   25 1   
    24   21   22 2   
    25   21   29 1   
    26   23   26 1   
    27   23   27 1   
    28   23   28 1   
    29   29   30 1   
    30   29   37 1   
    31   30   31 1   
    32   30   33 1   
    33   30   38 1   
    34   31   32 2   
    35   31   41 1   
    36   33   34 1   
    37   33   39 1   
    38   33   40 1   
    39   34   35 1   
    40   34   36 1   
    41   41   42 1   
    42   41   45 1   
    43   42   43 1   
    44   42   46 1   
    45   42   47 1   
    46   43   44 2   
    47   43   48 1   
    48   48   49 1   
    49   48   56 1   
    50   49   50 1   
    51   49   52 1   
    52   49   57 1   
    53   50   51 2   
    54   50   62 1   
    55   52   53 1   
    56   52   58 1   
    57   52   59 1   
    58   53   54 1   
    59   53   55 2   
    60   54   60 1   
    61   54   61 1   
    62   62   63 1   
    63   62   66 1   
    64   63   64 1   
    65   63   67 1   
    66   63   68 1   
    67   64   65 2   
    68   64   69 1   
    69   69   70 1   
    70   69   76 1   
    71   70   71 1   
    72   70   73 1   
    73   70   77 1   
    74   71   72 2   
    75   71   83 1   
    76   73   74 1   
    77   73   75 1   
    78   73   78 1   
    79   74   80 1   
    80   74   81 1   
    81   74   82 1   
    82   75   79 1   
    83   83   84 1   
    84   83   91 1   
    85   84   85 1   
    86   84   87 1   
    87   84   92 1   
    88   85   86 2   
    89   85  102 1   
    90   87   88 1   
    91   87   89 1   
    92   87   93 1   
    93   88   90 1   
    94   88   94 1   
    95   88   95 1   
    96   89   96 1   
    97   89   97 1   
    98   89   98 1   
    99   90   99 1   
   100   90  100 1   
   101   90  101 1   
   102  102  103 1   
   103  102  110 1   
   104  103  104 1   
   105  103  106 1   
   106  103  111 1   
   107  104  105 2   
   108  104  114 1   
   109  106  107 1   
   110  106  112 1   
   111  106  113 1   
   112  107  108 1   
   113  107  109 1   
   114  114  115 1   
   115  114  125 1   
   116  115  116 1   
   117  115  118 1   
   118  115  126 1   
   119  116  117 2   
   120  116  134 1   
   121  118  119 1   
   122  118  127 1   
   123  118  128 1   
   124  119  120 ar  
   125  119  121 ar  
   126  120  122 ar  
   127  120  129 1   
   128  121  123 ar  
   129  121  130 1   
   130  122  124 ar  
   131  122  131 1   
   132  123  124 ar  
   133  123  132 1   
   134  124  133 1   
   135  134  135 1   
   136  134  140 1   
   137  135  136 1   
   138  135  138 1   
   139  135  141 1   
   140  136  137 2   
   141  136  148 1   
   142  138  139 1   
   143  138  142 1   
   144  138  143 1   
   145  139  140 1   
   146  139  144 1   
   147  139  145 1   
   148  140  146 1   
   149  140  147 1   
   150  148  149 1   
   151  148  157 1   
   152  149  150 1   
   153  149  152 1   
   154  149  158 1   
   155  150  151 2   
   156  150  163 1   
   157  152  153 1   
   158  152  159 1   
   159  152  160 1   
   160  153  154 1   
   161  153  161 1   
   162  153  162 1   
   163  154  155 1   
   164  154  156 1   
   165  163  164 1   
   166  163  168 1   
   167  164  165 1   
   168  164  166 1   
   169  164  167 1   
@<TRIPOS>SUBSTRUCTURE
     1 MOL         1 TEMP              0 ****  ****    0 ROOT
