@<TRIPOS>MOLECULE
MOL
  189   185     1     0     0
SMALL
resp


@<TRIPOS>ATOM
      1 C1         -0.9220    4.9040    5.8430 c3        1 MOL     -0.427232
      2 C2         -1.3790    4.2040    4.4940 c         1 MOL      0.769595
      3 O1         -1.6130    3.0300    4.5220 o         1 MOL     -0.600598
      4 H1         -0.1070    4.3340    6.2900 hc        1 MOL      0.099988
      5 H2         -0.5820    5.9170    5.6310 hc        1 MOL      0.099988
      6 H3         -1.7620    4.9390    6.5380 hc        1 MOL      0.099988
      7 N1         -1.5030    5.0060    3.4510 n         1 MOL     -0.573998
      8 C3         -2.0630    4.4430    2.2090 c3        1 MOL      0.130598
      9 C4         -1.6650    5.2190    0.9020 c         1 MOL      0.428197
     10 O2         -1.7280    6.4780    0.9470 o         1 MOL     -0.594398
     11 C5         -3.6120    4.3980    2.2450 c3        1 MOL     -0.162087
     12 C6         -4.1660    3.7170    0.9310 c         1 MOL      0.547248
     13 O3         -5.0020    4.3120    0.2320 o         1 MOL     -0.601866
     14 O4         -3.6680    2.6260    0.5490 o         1 MOL     -0.601866
     15 H4         -1.2430    5.9830    3.3910 hn        1 MOL      0.320404
     16 H5         -1.6960    3.4230    2.0950 h1        1 MOL      0.068414
     17 H6         -4.1200    5.3640    2.2740 hc        1 MOL      0.038258
     18 H7         -3.8700    3.9700    3.2210 hc        1 MOL      0.038258
     19 N2         -1.4410    4.5760   -0.2410 n         1 MOL      0.083788
     20 C7         -1.1820    5.2610   -1.5370 c3        1 MOL     -0.022531
     21 C8         -2.2240    4.7490   -2.5730 c         1 MOL      0.385987
     22 O5         -2.4080    5.4900   -3.5590 o         1 MOL     -0.579523
     23 C9          0.2090    4.9640   -2.0550 c3        1 MOL      0.132906
     24 C10         0.7140    3.5340   -2.1700 c3        1 MOL      0.197015
     25 C11         1.1700    5.9350   -1.3070 c3        1 MOL     -0.249154
     26 C12         1.9480    3.3260   -3.0400 c3        1 MOL     -0.367027
     27 H8         -1.2680    3.5830   -0.1680 hn        1 MOL     -0.204913
     28 H9         -1.3190    6.3400   -1.4990 h1        1 MOL      0.090047
     29 H10         0.2010    5.3470   -3.0800 hc        1 MOL     -0.016025
     30 H11        -0.0990    2.8400   -2.3980 hc        1 MOL     -0.027344
     31 H12         1.0860    3.2940   -1.1670 hc        1 MOL     -0.027344
     32 H13         0.9040    6.9880   -1.2950 hc        1 MOL      0.052931
     33 H14         1.2730    5.5750   -0.2850 hc        1 MOL      0.052931
     34 H15         2.1410    5.8400   -1.7760 hc        1 MOL      0.052931
     35 H16         2.3870    2.3340   -3.0220 hc        1 MOL      0.079971
     36 H17         1.6040    3.5750   -4.0440 hc        1 MOL      0.079971
     37 H18         2.6580    4.0470   -2.6370 hc        1 MOL      0.079971
     38 N3         -2.8340    3.5280   -2.4690 n         1 MOL     -0.062140
     39 C13        -3.6370    2.9580   -3.5800 c3        1 MOL      0.012588
     40 C14        -5.0640    2.5020   -3.2090 c         1 MOL      0.326281
     41 O6         -5.7400    1.9450   -4.1430 o         1 MOL     -0.560607
     42 C15        -2.8280    1.8840   -4.2160 c3        1 MOL     -0.186421
     43 C16        -2.4600    0.8380   -3.2200 c         1 MOL      0.847453
     44 O7         -3.1100    0.7440   -2.1470 o         1 MOL     -0.726264
     45 O8         -1.6370   -0.0030   -3.6250 o         1 MOL     -0.726264
     46 H19        -2.7850    3.0280   -1.5930 hn        1 MOL      0.125895
     47 H20        -3.8420    3.6700   -4.3760 h1        1 MOL      0.084259
     48 H21        -1.8660    2.2830   -4.5420 hc        1 MOL      0.041708
     49 H22        -3.3770    1.4580   -5.0520 hc        1 MOL      0.041708
     50 N4         -5.4920    2.5470   -1.9460 n         1 MOL     -0.035298
     51 C17        -6.8150    2.1940   -1.5000 c3        1 MOL     -0.101374
     52 C18        -7.3100    0.7320   -1.6520 c         1 MOL      0.435397
     53 O9         -8.5300    0.5820   -1.6680 o         1 MOL     -0.577347
     54 H23        -4.7860    2.9540   -1.3470 hn        1 MOL      0.015215
     55 H24        -7.5500    2.8150   -2.0130 h1        1 MOL      0.080586
     56 H25        -6.9530    2.4540   -0.4470 h1        1 MOL      0.080586
     57 N5         -6.4170   -0.2360   -1.8650 n         1 MOL     -0.135044
     58 C19        -6.8070   -1.6580   -2.1850 c3        1 MOL     -0.093778
     59 C20        -7.2090   -2.5320   -0.9790 c         1 MOL      0.432493
     60 O10        -7.7180   -3.6290   -1.0780 o         1 MOL     -0.544067
     61 C21        -5.5830   -2.3510   -2.8190 c3        1 MOL     -0.228681
     62 C22        -4.2630   -2.3690   -1.9480 c         1 MOL      0.670103
     63 O11        -4.2560   -1.7690   -0.8240 o         1 MOL     -0.631505
     64 O12        -3.2910   -3.0150   -2.3200 o         1 MOL     -0.631505
     65 H26        -5.4140   -0.1110   -1.9600 hn        1 MOL      0.180494
     66 H27        -7.5530   -1.7500   -2.9740 h1        1 MOL      0.124018
     67 H28        -5.3010   -1.7800   -3.7020 hc        1 MOL      0.086871
     68 H29        -5.7880   -3.3310   -3.2470 hc        1 MOL      0.086871
     69 N6         -6.9810   -2.0600    0.2290 n         1 MOL     -0.297796
     70 C23        -7.0810   -2.8250    1.4910 c3        1 MOL     -0.146275
     71 C24        -5.8760   -3.6300    1.9350 c         1 MOL      0.454099
     72 O13        -5.9270   -4.3920    2.8910 o         1 MOL     -0.599435
     73 H30        -6.5140   -1.1680    0.2130 hn        1 MOL      0.241945
     74 H31        -7.9400   -3.4810    1.4490 h1        1 MOL      0.106041
     75 H32        -7.3630   -2.1280    2.2790 h1        1 MOL      0.106041
     76 N7         -4.7260   -3.5020    1.2640 n         1 MOL     -0.102908
     77 C25        -3.4240   -4.0920    1.5570 c3        1 MOL      0.023166
     78 C26        -2.3810   -3.0560    1.9950 c         1 MOL      0.278217
     79 O14        -2.4790   -1.8480    1.7790 o         1 MOL     -0.451993
     80 C27        -2.9250   -4.8390    0.3070 c3        1 MOL      0.137751
     81 C28        -4.0330   -5.5310   -0.5050 c3        1 MOL     -0.298690
     82 C29        -3.5340   -6.3830   -1.5590 c         1 MOL      0.694608
     83 N8         -3.0640   -5.8450   -2.6700 n         1 MOL     -0.768343
     84 O15        -3.4030   -7.5890   -1.4190 o         1 MOL     -0.635343
     85 H33        -4.7570   -2.9600    0.4110 hn        1 MOL      0.197780
     86 H34        -3.5550   -4.8580    2.3190 h1        1 MOL      0.050680
     87 H35        -2.1820   -5.5860    0.5560 hc        1 MOL      0.008960
     88 H36        -2.4840   -4.0640   -0.3230 hc        1 MOL      0.008960
     89 H37        -4.5970   -4.7710   -1.0440 hc        1 MOL      0.074752
     90 H38        -4.6230   -6.1490    0.1730 hc        1 MOL      0.074752
     91 H39        -3.0060   -4.8300   -2.7220 hn        1 MOL      0.341555
     92 H40        -2.6340   -6.4250   -3.3790 hn        1 MOL      0.341555
     93 N9         -1.2800   -3.5400    2.5710 n         1 MOL     -0.348681
     94 C30        -0.0840   -2.8270    2.8180 c3        1 MOL      0.229058
     95 C31         0.9350   -3.2730    1.7910 c         1 MOL      0.456945
     96 O16         1.1720   -4.4970    1.6480 o         1 MOL     -0.620026
     97 C32         0.4030   -3.1340    4.2930 c3        1 MOL      0.200405
     98 C33         1.6250   -2.3060    4.6110 c3        1 MOL     -0.276095
     99 C34        -0.6170   -2.9830    5.4600 c3        1 MOL     -0.276095
    100 H41        -1.3150   -4.5490    2.6470 hn        1 MOL      0.238334
    101 H42        -0.2120   -1.7490    2.7140 h1        1 MOL     -0.015985
    102 H43         0.6640   -4.1930    4.2410 hc        1 MOL     -0.029339
    103 H44         2.4750   -2.4090    3.9410 hc        1 MOL      0.056710
    104 H45         1.4450   -1.2450    4.7930 hc        1 MOL      0.056710
    105 H46         1.9250   -2.7230    5.5730 hc        1 MOL      0.056710
    106 H47        -1.3760   -3.7640    5.4180 hc        1 MOL      0.056710
    107 H48        -0.0930   -3.0440    6.4220 hc        1 MOL      0.056710
    108 H49        -1.0810   -2.0010    5.5570 hc        1 MOL      0.056710
    109 N10         1.5850   -2.3670    1.1210 n         1 MOL     -0.262378
    110 C35         2.7630   -2.5840    0.3050 c3        1 MOL      0.256599
    111 C36         4.1090   -2.2590    1.0020 c         1 MOL      0.026248
    112 O17         4.1120   -1.4990    1.9720 o         1 MOL     -0.114401
    113 C37         2.6220   -1.8020   -1.0300 c3        1 MOL     -0.378742
    114 C38         3.6500   -1.9630   -2.1240 c         1 MOL      0.769992
    115 N11         3.9760   -3.1630   -2.4930 n         1 MOL     -0.783849
    116 O18         4.2560   -1.0120   -2.5130 o         1 MOL     -0.557859
    117 H50         1.2110   -1.4320    1.2410 hn        1 MOL      0.225341
    118 H51         2.7360   -3.6570    0.0920 h1        1 MOL      0.026147
    119 H52         2.5980   -0.7460   -0.7980 hc        1 MOL      0.122179
    120 H53         1.6970   -2.0390   -1.5650 hc        1 MOL      0.122179
    121 H54         3.5140   -3.9640   -2.0880 hn        1 MOL      0.341863
    122 H55         4.7580   -3.2840   -3.1260 hn        1 MOL      0.341863
    123 N12         5.3160   -2.7230    0.5150 n         1 MOL     -0.130673
    124 C39         6.6140   -2.2300    1.0540 c3        1 MOL     -0.010963
    125 C40         6.6860   -0.7020    0.9750 c         1 MOL      0.588929
    126 O19         7.2520   -0.1280    1.9060 o         1 MOL     -0.609541
    127 C41         7.7110   -2.9640    0.3190 c3        1 MOL     -0.273693
    128 C42         7.9340   -2.7920   -1.1550 ca        1 MOL      0.058210
    129 C43         8.6610   -1.7090   -1.6680 ca        1 MOL     -0.127361
    130 C44         7.4370   -3.7280   -2.1170 ca        1 MOL     -0.127361
    131 C45         8.8120   -1.5440   -3.0630 ca        1 MOL     -0.328718
    132 C46         7.5970   -3.5890   -3.5140 ca        1 MOL     -0.328718
    133 C47         8.2990   -2.5020   -4.0070 ca        1 MOL      0.433344
    134 O20         8.4010   -2.2930   -5.3010 oh        1 MOL     -0.576188
    135 H56         5.3090   -3.2860   -0.3220 hn        1 MOL      0.121272
    136 H57         6.5480   -2.5560    2.0820 h1        1 MOL      0.081151
    137 H58         7.6540   -4.0190    0.6080 hc        1 MOL      0.093769
    138 H59         8.6160   -2.5470    0.7600 hc        1 MOL      0.093769
    139 H60         9.0700   -1.0460   -0.9180 ha        1 MOL      0.126963
    140 H61         6.9000   -4.6000   -1.7880 ha        1 MOL      0.126963
    141 H62         9.3040   -0.6270   -3.3870 ha        1 MOL      0.157887
    142 H63         7.1750   -4.3390   -4.1700 ha        1 MOL      0.157887
    143 H64         8.7470   -1.4440   -5.5690 ho        1 MOL      0.444017
    144 N13         6.1390   -0.0420   -0.0140 n         1 MOL     -0.164943
    145 C48         6.1560    1.4430   -0.0490 c3        1 MOL     -0.127666
    146 C49         5.2550    2.1070    1.0530 c         1 MOL      0.416746
    147 O21         5.3140    3.3470    1.1720 o         1 MOL     -0.537670
    148 C50         5.6690    1.9220   -1.4460 c3        1 MOL      0.209044
    149 C51         6.6520    1.5820   -2.6350 c3        1 MOL     -0.456270
    150 C52         7.7010    2.6220   -2.6990 c         1 MOL      0.829303
    151 O22         8.6850    2.5000   -1.9890 o         1 MOL     -0.760597
    152 O23         7.6730    3.5640   -3.5060 o         1 MOL     -0.760597
    153 H65         5.6870   -0.5720   -0.7530 hn        1 MOL      0.190621
    154 H66         7.1690    1.8200    0.0120 h1        1 MOL      0.135950
    155 H67         5.6280    3.0160   -1.3910 hc        1 MOL     -0.003749
    156 H68         4.6900    1.5420   -1.7120 hc        1 MOL     -0.003749
    157 H69         6.0610    1.5730   -3.5470 hc        1 MOL      0.089432
    158 H70         7.0330    0.5550   -2.5930 hc        1 MOL      0.089432
    159 N14         4.4450    1.3590    1.8070 n         1 MOL     -0.205868
    160 C53         3.4990    1.8170    2.8910 c3        1 MOL      0.096723
    161 C54         3.8430    1.3270    4.2990 c         1 MOL      0.366793
    162 O24         3.8180    2.1290    5.1910 o         1 MOL     -0.545584
    163 C55         2.1900    1.2210    2.4780 c3        1 MOL     -0.179642
    164 C56         1.5680    1.8390    1.2320 c3        1 MOL      0.133738
    165 C57         0.2190    1.1720    0.8150 c         1 MOL      0.622783
    166 O25        -0.7620    1.8270    0.3590 o         1 MOL     -0.642644
    167 O26         0.0450   -0.0550    0.9930 o         1 MOL     -0.642644
    168 H71         4.5070    0.3610    1.6650 hn        1 MOL      0.068317
    169 H72         3.4950    2.9040    2.8900 h1        1 MOL      0.075580
    170 H73         1.4670    1.5620    3.2200 hc        1 MOL      0.039072
    171 H74         2.2220    0.1440    2.3730 hc        1 MOL      0.039072
    172 H75         2.2620    1.7280    0.3960 hc        1 MOL     -0.016539
    173 H76         1.5760    2.8930    1.5260 hc        1 MOL     -0.016539
    174 N15         4.5440    0.2210    4.2900 n         1 MOL      0.059762
    175 C58         5.2930   -0.3880    5.3730 c3        1 MOL     -0.201609
    176 H77         4.9320   -0.0010    6.3260 h1        1 MOL      0.068925
    177 H78         5.1570   -1.4700    5.3470 h1        1 MOL      0.068925
    178 H79         6.3510   -0.1510    5.2620 h1        1 MOL      0.068925
    179 H80         4.4910   -0.3430    3.4590 hn        1 MOL     -0.037494
    180 Ca1        -2.8350    0.2290    0.3320 Ca        1 MOL      1.695271
    181 O27        -2.4830    1.0450    2.8120 oh        1 MOL     -0.931169
    182 H81        -2.3610    1.9030    3.2220 ho        1 MOL      0.430367
    183 H82        -2.3890    0.4240    3.5280 ho        1 MOL      0.430367
    184 O28        -1.3790   -1.4740   -1.4740 oh        1 MOL     -0.931169
    185 H83        -1.2240   -0.8680   -2.1960 ho        1 MOL      0.430367
    186 H84        -1.9920   -2.1170   -1.8200 ho        1 MOL      0.430367
    187 O29        -5.0880   -0.1060    1.7250 oh        1 MOL     -0.931169
    188 H85        -5.5480    0.7370    1.8050 ho        1 MOL      0.430367
    189 H86        -4.8400   -0.3340    2.6240 ho        1 MOL      0.430367
@<TRIPOS>BOND
     1    1    2 1   
     2    1    4 1   
     3    1    5 1   
     4    1    6 1   
     5    2    3 2   
     6    2    7 1   
     7    7    8 1   
     8    7   15 1   
     9    8    9 1   
    10    8   11 1   
    11    8   16 1   
    12    9   10 2   
    13    9   19 1   
    14   11   12 1   
    15   11   17 1   
    16   11   18 1   
    17   12   13 1   
    18   12   14 1   
    19   19   20 1   
    20   19   27 1   
    21   20   21 1   
    22   20   23 1   
    23   20   28 1   
    24   21   22 2   
    25   21   38 1   
    26   23   24 1   
    27   23   25 1   
    28   23   29 1   
    29   24   26 1   
    30   24   30 1   
    31   24   31 1   
    32   25   32 1   
    33   25   33 1   
    34   25   34 1   
    35   26   35 1   
    36   26   36 1   
    37   26   37 1   
    38   38   39 1   
    39   38   46 1   
    40   39   40 1   
    41   39   42 1   
    42   39   47 1   
    43   40   41 2   
    44   40   50 1   
    45   42   43 1   
    46   42   48 1   
    47   42   49 1   
    48   43   44 1   
    49   43   45 1   
    50   50   51 1   
    51   50   54 1   
    52   51   52 1   
    53   51   55 1   
    54   51   56 1   
    55   52   53 2   
    56   52   57 1   
    57   57   58 1   
    58   57   65 1   
    59   58   59 1   
    60   58   61 1   
    61   58   66 1   
    62   59   60 2   
    63   59   69 1   
    64   61   62 1   
    65   61   67 1   
    66   61   68 1   
    67   62   63 1   
    68   62   64 1   
    69   69   70 1   
    70   69   73 1   
    71   70   71 1   
    72   70   74 1   
    73   70   75 1   
    74   71   72 2   
    75   71   76 1   
    76   76   77 1   
    77   76   85 1   
    78   77   78 1   
    79   77   80 1   
    80   77   86 1   
    81   78   79 2   
    82   78   93 1   
    83   80   81 1   
    84   80   87 1   
    85   80   88 1   
    86   81   82 1   
    87   81   89 1   
    88   81   90 1   
    89   82   83 1   
    90   82   84 2   
    91   83   91 1   
    92   83   92 1   
    93   93   94 1   
    94   93  100 1   
    95   94   95 1   
    96   94   97 1   
    97   94  101 1   
    98   95   96 2   
    99   95  109 1   
   100   97   98 1   
   101   97   99 1   
   102   97  102 1   
   103   98  103 1   
   104   98  104 1   
   105   98  105 1   
   106   99  106 1   
   107   99  107 1   
   108   99  108 1   
   109  109  110 1   
   110  109  117 1   
   111  110  111 1   
   112  110  113 1   
   113  110  118 1   
   114  111  112 2   
   115  111  123 1   
   116  113  114 1   
   117  113  119 1   
   118  113  120 1   
   119  114  115 1   
   120  114  116 2   
   121  115  121 1   
   122  115  122 1   
   123  123  124 1   
   124  123  135 1   
   125  124  125 1   
   126  124  127 1   
   127  124  136 1   
   128  125  126 2   
   129  125  144 1   
   130  127  128 1   
   131  127  137 1   
   132  127  138 1   
   133  128  129 ar  
   134  128  130 ar  
   135  129  131 ar  
   136  129  139 1   
   137  130  132 ar  
   138  130  140 1   
   139  131  133 ar  
   140  131  141 1   
   141  132  133 ar  
   142  132  142 1   
   143  133  134 1   
   144  134  143 1   
   145  144  145 1   
   146  144  153 1   
   147  145  146 1   
   148  145  148 1   
   149  145  154 1   
   150  146  147 2   
   151  146  159 1   
   152  148  149 1   
   153  148  155 1   
   154  148  156 1   
   155  149  150 1   
   156  149  157 1   
   157  149  158 1   
   158  150  151 1   
   159  150  152 1   
   160  159  160 1   
   161  159  168 1   
   162  160  161 1   
   163  160  163 1   
   164  160  169 1   
   165  161  162 2   
   166  161  174 1   
   167  163  164 1   
   168  163  170 1   
   169  163  171 1   
   170  164  165 1   
   171  164  172 1   
   172  164  173 1   
   173  165  166 1   
   174  165  167 1   
   175  174  175 1   
   176  174  179 1   
   177  175  176 1   
   178  175  177 1   
   179  175  178 1   
   180  181  182 1   
   181  181  183 1   
   182  184  185 1   
   183  184  186 1   
   184  187  188 1   
   185  187  189 1   
@<TRIPOS>SUBSTRUCTURE
     1 MOL         1 TEMP              0 ****  ****    0 ROOT
