@<TRIPOS>MOLECULE
MOL
  189   185     1     0     0
SMALL
resp


@<TRIPOS>ATOM
      1 C1         -0.1160    2.9440   -5.4160 c3        1 MOL     -0.322090
      2 C2          0.4790    2.7250   -4.0340 c         1 MOL      0.663375
      3 O1         -0.0300    3.1920   -3.0470 o         1 MOL     -0.590716
      4 H1          0.2940    2.2080   -6.1080 hc        1 MOL      0.085024
      5 H2         -1.1990    2.8320   -5.3680 hc        1 MOL      0.085024
      6 H3          0.1310    3.9470   -5.7640 hc        1 MOL      0.085024
      7 N1          1.6050    1.9650   -3.9440 n         1 MOL     -0.545333
      8 C3          2.4090    1.7240   -2.7340 c3        1 MOL      0.217171
      9 C4          2.9260    3.0670   -2.1390 c         1 MOL      0.479796
     10 O2          3.7280    3.7460   -2.7600 o         1 MOL     -0.559380
     11 C5          3.5290    0.7590   -2.9800 c3        1 MOL     -0.369623
     12 C6          4.2550    0.2650   -1.7070 c         1 MOL      0.824543
     13 O3          3.5860    0.2760   -0.6310 o         1 MOL     -0.671472
     14 O4          5.4300   -0.1190   -1.8150 o         1 MOL     -0.671472
     15 H4          1.9930    1.6220   -4.8130 hn        1 MOL      0.293081
     16 H5          1.6940    1.3130   -2.0250 h1        1 MOL      0.038621
     17 H6          4.2500    1.1180   -3.7220 hc        1 MOL      0.086051
     18 H7          2.9500   -0.1080   -3.3010 hc        1 MOL      0.086051
     19 N2          2.3440    3.4900   -0.9670 n         1 MOL     -0.131161
     20 C7          2.4450    4.7650   -0.3390 c3        1 MOL      0.011718
     21 C8          3.3570    4.7950    0.8490 c         1 MOL      0.392373
     22 O5          4.1850    5.7060    1.0090 o         1 MOL     -0.546634
     23 C9          1.1390    5.4270   -0.0010 c3        1 MOL      0.068321
     24 C10         1.1660    6.8380    0.5490 c3        1 MOL     -0.180997
     25 C11         1.8050    7.9030   -0.3630 c3        1 MOL     -0.006629
     26 C12         1.0160    7.9260   -1.7020 c3        1 MOL      0.108088
     27 N3          1.8560    8.6560   -2.7510 n4        1 MOL     -0.585415
     28 H8          1.7460    2.7820   -0.5580 hn        1 MOL      0.100988
     29 H9          2.9090    5.3690   -1.1280 h1        1 MOL      0.039700
     30 H10         0.5890    4.8970    0.7750 hc        1 MOL      0.046446
     31 H11         0.4950    5.3270   -0.8800 hc        1 MOL      0.046446
     32 H12         1.6040    6.9160    1.5430 hc        1 MOL      0.064170
     33 H13         0.0960    7.0650    0.5730 hc        1 MOL      0.064170
     34 H14         2.8570    7.6260   -0.4730 hc        1 MOL      0.036489
     35 H15         1.7120    8.8720    0.1370 hc        1 MOL      0.036489
     36 H16         0.0390    8.3860   -1.5370 hx        1 MOL      0.061276
     37 H17         0.8440    6.8940   -2.0240 hx        1 MOL      0.061276
     38 H18         1.9680    9.6300   -2.5210 hn        1 MOL      0.384990
     39 H19         2.6930    8.1080   -2.8510 hn        1 MOL      0.384990
     40 H20         1.3960    8.5760   -3.6360 hn        1 MOL      0.384990
     41 N4          3.3330    3.7660    1.6840 n         1 MOL     -0.278783
     42 C13         4.3060    3.5580    2.7790 c3        1 MOL      0.049283
     43 C14         5.5950    2.8840    2.4010 c         1 MOL      0.408148
     44 O6          6.5920    2.9080    3.1500 o         1 MOL     -0.541820
     45 C15         3.6240    2.8170    3.9160 c3        1 MOL     -0.212917
     46 C16         2.9160    1.5100    3.6200 c         1 MOL      0.746889
     47 O7          3.2650    0.8400    2.5490 o         1 MOL     -0.682250
     48 O8          1.9600    1.1070    4.2810 o         1 MOL     -0.682250
     49 H21         2.7220    3.0100    1.4010 hn        1 MOL      0.206595
     50 H22         4.6220    4.5030    3.2010 h1        1 MOL      0.097389
     51 H23         2.8970    3.5070    4.3540 hc        1 MOL      0.056918
     52 H24         4.3990    2.6770    4.6620 hc        1 MOL      0.056918
     53 N5          5.6670    2.2670    1.2060 n         1 MOL     -0.005638
     54 C17         6.8320    1.7030    0.5590 c3        1 MOL     -0.453668
     55 C18         7.2850    0.2490    0.9140 c         1 MOL      0.635453
     56 O9          8.2920   -0.2850    0.4390 o         1 MOL     -0.558916
     57 H25         4.7780    2.0990    0.7600 hn        1 MOL      0.056854
     58 H26         7.6210    2.4010    0.8620 h1        1 MOL      0.170455
     59 H27         6.7650    1.6550   -0.5260 h1        1 MOL      0.170455
     60 N6          6.4400   -0.4700    1.7430 n         1 MOL     -0.332243
     61 C19         6.6810   -1.7650    2.3420 c3        1 MOL      0.000850
     62 C20         6.7460   -2.9810    1.4130 c         1 MOL      0.459334
     63 O10         7.1690   -4.0530    1.7890 o         1 MOL     -0.561421
     64 C21         5.6080   -2.0880    3.3990 c3        1 MOL     -0.247448
     65 C22         4.1500   -2.2930    2.9040 c         1 MOL      0.790399
     66 O11         3.2240   -2.4400    3.7160 o         1 MOL     -0.713560
     67 O12         3.8260   -2.3320    1.7140 o         1 MOL     -0.713560
     68 H28         5.6100   -0.0110    2.0820 hn        1 MOL      0.202387
     69 H29         7.5860   -1.7240    2.9410 h1        1 MOL      0.080506
     70 H30         5.6300   -1.3350    4.1930 hc        1 MOL      0.089374
     71 H31         5.9320   -2.9810    3.9320 hc        1 MOL      0.089374
     72 N7          6.1990   -2.8930    0.1960 n         1 MOL     -0.165042
     73 C23         6.1860   -4.0500   -0.7690 c3        1 MOL     -0.070069
     74 C24         4.8870   -4.9390   -0.9900 c         1 MOL      0.476409
     75 O13         5.0140   -5.9720   -1.6040 o         1 MOL     -0.547345
     76 H32         5.5510   -2.1220    0.1190 hn        1 MOL      0.132312
     77 H33         7.0390   -4.7250   -0.6820 h1        1 MOL      0.087635
     78 H34         6.3960   -3.7180   -1.7790 h1        1 MOL      0.087635
     79 N8          3.6810   -4.4610   -0.6130 n         1 MOL     -0.283181
     80 C25         2.4080   -5.0310   -1.1230 c3        1 MOL     -0.038651
     81 C26         1.4750   -3.7850   -1.3490 c         1 MOL      0.575872
     82 O14         1.7990   -2.6570   -0.9880 o         1 MOL     -0.677043
     83 C27         1.7700   -6.1320   -0.2730 c3        1 MOL      0.357419
     84 C28         2.5540   -7.4280   -0.2670 c3        1 MOL     -0.391112
     85 O15         1.6870   -5.7260    1.0700 oh        1 MOL     -0.648459
     86 H35         3.6770   -3.7200    0.0770 hn        1 MOL      0.241936
     87 H36         2.5770   -5.4560   -2.1130 h1        1 MOL      0.064155
     88 H37         0.7730   -6.2090   -0.7160 h1        1 MOL      0.028825
     89 H38         2.5600   -5.7920    1.4680 ho        1 MOL      0.412229
     90 H39         2.0800   -8.2640    0.2550 hc        1 MOL      0.103276
     91 H40         2.6310   -7.7990   -1.2930 hc        1 MOL      0.103276
     92 H41         3.5490   -7.2170    0.1270 hc        1 MOL      0.103276
     93 N9          0.3390   -3.9890   -1.9280 n         1 MOL     -0.325118
     94 C29        -0.7540   -3.0710   -2.0910 c3        1 MOL      0.109833
     95 C30        -2.0250   -3.5480   -1.4240 c         1 MOL      0.509097
     96 O16        -2.2880   -4.7430   -1.5120 o         1 MOL     -0.592327
     97 C31        -1.0830   -2.9030   -3.6260 c3        1 MOL      0.025884
     98 C32         0.1750   -2.8350   -4.5450 c3        1 MOL      0.344112
     99 C33        -1.9170   -1.6190   -3.8580 c3        1 MOL     -0.747413
    100 C34         0.0370   -2.5540   -6.0410 c3        1 MOL     -0.217506
    101 H42         0.2510   -4.9460   -2.2330 hn        1 MOL      0.190592
    102 H43        -0.4920   -2.1260   -1.6230 h1        1 MOL      0.079254
    103 H44        -1.7380   -3.7170   -3.9260 hc        1 MOL      0.016457
    104 H45         0.7340   -3.7590   -4.4600 hc        1 MOL     -0.078805
    105 H46         0.8790   -2.1170   -4.1220 hc        1 MOL     -0.078805
    106 H47        -2.3110   -1.5110   -4.8610 hc        1 MOL      0.164455
    107 H48        -2.6970   -1.5650   -3.1070 hc        1 MOL      0.164455
    108 H49        -1.2590   -0.7590   -3.7390 hc        1 MOL      0.164455
    109 H50         0.9860   -2.5330   -6.5670 hc        1 MOL      0.044946
    110 H51        -0.5180   -3.3700   -6.4960 hc        1 MOL      0.044946
    111 H52        -0.5110   -1.6180   -6.1830 hc        1 MOL      0.044946
    112 N10        -2.7790   -2.6660   -0.8510 n         1 MOL     -0.235406
    113 C35        -4.0280   -2.9020   -0.0790 c3        1 MOL      0.019341
    114 C36        -5.3300   -2.3290   -0.6460 c         1 MOL      0.354543
    115 O17        -5.2290   -1.4460   -1.5350 o         1 MOL     -0.343755
    116 C37        -3.8820   -2.4010    1.3610 c3        1 MOL      0.046517
    117 C38        -2.5380   -2.7260    2.0970 c3        1 MOL     -0.508171
    118 O18        -4.0020   -1.0630    1.2070 oh        1 MOL     -0.232461
    119 H53        -2.4270   -1.7380   -1.0410 hn        1 MOL      0.398586
    120 H54        -4.2320   -3.9630    0.1020 h1        1 MOL      0.069322
    121 H55        -4.6880   -2.7800    1.9880 h1        1 MOL      0.009740
    122 H56        -4.0780   -0.6600    2.0710 ho        1 MOL      0.315074
    123 H57        -2.6450   -2.5570    3.1720 hc        1 MOL      0.137965
    124 H58        -2.2410   -3.7760    2.0780 hc        1 MOL      0.137965
    125 H59        -1.6450   -2.1880    1.7730 hc        1 MOL      0.137965
    126 N11        -6.5020   -2.6770   -0.0400 n         1 MOL     -0.386737
    127 C39        -7.7820   -2.0100   -0.3660 c3        1 MOL      0.052397
    128 C40        -7.5940   -0.4370   -0.3550 c         1 MOL      0.207317
    129 O19        -8.0710    0.1600   -1.3280 o         1 MOL     -0.466894
    130 C41        -8.8540   -2.3190    0.7260 c3        1 MOL      0.090424
    131 C42        -9.3660   -3.7610    0.5780 c3        1 MOL     -0.392703
    132 O20        -8.2110   -2.2690    1.9640 oh        1 MOL     -0.603088
    133 H60        -6.5150   -3.2950    0.7640 hn        1 MOL      0.308558
    134 H61        -8.0400   -2.3320   -1.3710 h1        1 MOL      0.132019
    135 H62        -9.6930   -1.6380    0.6040 h1        1 MOL      0.093721
    136 H63        -8.9360   -2.2370    2.5890 ho        1 MOL      0.424361
    137 H64        -9.5090   -4.0480   -0.4620 hc        1 MOL      0.120523
    138 H65        -8.4990   -4.3780    0.8140 hc        1 MOL      0.120523
    139 H66       -10.2030   -4.1010    1.2040 hc        1 MOL      0.120523
    140 N12        -6.9670    0.0670    0.6490 n         1 MOL      0.024018
    141 C43        -6.8380    1.4730    0.8700 c3        1 MOL     -0.200240
    142 C44        -5.8200    2.2200   -0.0340 c         1 MOL      0.384010
    143 O21        -5.8820    3.4210   -0.2370 o         1 MOL     -0.495640
    144 C45        -6.4810    1.8560    2.3720 c3        1 MOL     -0.038711
    145 C46        -7.5930    1.5510    3.3540 c3        1 MOL     -0.148442
    146 C47        -7.0760    1.7910    4.7950 c3        1 MOL     -0.002497
    147 C48        -8.3430    1.6170    5.6870 c3        1 MOL      0.067495
    148 N13        -8.0310    1.9400    7.1030 n4        1 MOL     -0.300454
    149 H67        -6.5980   -0.5280    1.3790 hn        1 MOL      0.190611
    150 H68        -7.8340    1.8140    0.5930 h1        1 MOL      0.136148
    151 H69        -6.1860    2.9040    2.4280 hc        1 MOL      0.055747
    152 H70        -5.5630    1.3180    2.5950 hc        1 MOL      0.055747
    153 H71        -7.8720    0.5010    3.3210 hc        1 MOL      0.060862
    154 H72        -8.4410    2.2320    3.2720 hc        1 MOL      0.060862
    155 H73        -6.6220    2.7710    4.9520 hc        1 MOL      0.038566
    156 H74        -6.2960    1.1450    5.1930 hc        1 MOL      0.038566
    157 H75        -8.7260    0.5950    5.6240 hx        1 MOL      0.065658
    158 H76        -9.1530    2.2600    5.3180 hx        1 MOL      0.065658
    159 H77        -8.8420    1.7390    7.6680 hn        1 MOL      0.278180
    160 H78        -7.1850    1.4840    7.4170 hn        1 MOL      0.278180
    161 H79        -7.9000    2.9240    7.2340 hn        1 MOL      0.278180
    162 N14        -4.8570    1.4260   -0.6080 n         1 MOL      0.109509
    163 C49        -3.8110    2.0140   -1.4050 c3        1 MOL     -0.022128
    164 C50        -4.1910    2.1400   -2.8990 c         1 MOL      0.365317
    165 O22        -4.0870    3.2560   -3.4980 o         1 MOL     -0.519072
    166 C51        -2.5690    1.1270   -1.2480 c3        1 MOL      0.229192
    167 C52        -1.8380    1.4950    0.0540 c3        1 MOL     -0.431415
    168 C53        -0.4960    0.8240    0.2070 c         1 MOL      0.842600
    169 O23        -0.3000   -0.3330   -0.1610 o         1 MOL     -0.766034
    170 O24         0.4460    1.5050    0.6090 o         1 MOL     -0.766034
    171 H80        -4.8860    0.4580   -0.3180 hn        1 MOL     -0.150567
    172 H81        -3.6800    3.0510   -1.0890 h1        1 MOL      0.069234
    173 H82        -1.9240    1.2650   -2.1250 hc        1 MOL     -0.017064
    174 H83        -2.8050    0.0670   -1.2340 hc        1 MOL     -0.017064
    175 H84        -2.4340    1.2590    0.9330 hc        1 MOL      0.048427
    176 H85        -1.6180    2.5560   -0.0870 hc        1 MOL      0.048427
    177 N15        -4.9440    1.1210   -3.3510 n         1 MOL     -0.178105
    178 C54        -5.8270    1.2230   -4.5590 c3        1 MOL     -0.335014
    179 H86        -6.8430    0.9320   -4.2910 h1        1 MOL      0.130367
    180 H87        -5.8270    2.2500   -4.9240 h1        1 MOL      0.130367
    181 H88        -5.4540    0.5600   -5.3390 h1        1 MOL      0.130367
    182 H89        -5.0240    0.2790   -2.8090 hn        1 MOL      0.216424
    183 Ca1         1.9220   -0.7180    0.9610 Ca        1 MOL      1.658813
    184 O25         0.4190   -0.6690    3.0480 oh        1 MOL     -0.799960
    185 H90         0.0590   -1.2310    3.7330 ho        1 MOL      0.386755
    186 H91         1.0410   -0.1040    3.5080 ho        1 MOL      0.386755
    187 O26         1.1950   -3.2270    1.8030 oh        1 MOL     -0.799960
    188 H92         1.7490   -3.1890    2.5850 ho        1 MOL      0.386755
    189 H93         0.8960   -4.1390    1.7680 ho        1 MOL      0.386755
@<TRIPOS>BOND
     1    1    2 1   
     2    1    4 1   
     3    1    5 1   
     4    1    6 1   
     5    2    3 2   
     6    2    7 1   
     7    7    8 1   
     8    7   15 1   
     9    8    9 1   
    10    8   11 1   
    11    8   16 1   
    12    9   10 2   
    13    9   19 1   
    14   11   12 1   
    15   11   17 1   
    16   11   18 1   
    17   12   13 1   
    18   12   14 1   
    19   19   20 1   
    20   19   28 1   
    21   20   21 1   
    22   20   23 1   
    23   20   29 1   
    24   21   22 2   
    25   21   41 1   
    26   23   24 1   
    27   23   30 1   
    28   23   31 1   
    29   24   25 1   
    30   24   32 1   
    31   24   33 1   
    32   25   26 1   
    33   25   34 1   
    34   25   35 1   
    35   26   27 1   
    36   26   36 1   
    37   26   37 1   
    38   27   38 1   
    39   27   39 1   
    40   27   40 1   
    41   41   42 1   
    42   41   49 1   
    43   42   43 1   
    44   42   45 1   
    45   42   50 1   
    46   43   44 2   
    47   43   53 1   
    48   45   46 1   
    49   45   51 1   
    50   45   52 1   
    51   46   47 1   
    52   46   48 1   
    53   53   54 1   
    54   53   57 1   
    55   54   55 1   
    56   54   58 1   
    57   54   59 1   
    58   55   56 2   
    59   55   60 1   
    60   60   61 1   
    61   60   68 1   
    62   61   62 1   
    63   61   64 1   
    64   61   69 1   
    65   62   63 2   
    66   62   72 1   
    67   64   65 1   
    68   64   70 1   
    69   64   71 1   
    70   65   66 1   
    71   65   67 1   
    72   72   73 1   
    73   72   76 1   
    74   73   74 1   
    75   73   77 1   
    76   73   78 1   
    77   74   75 2   
    78   74   79 1   
    79   79   80 1   
    80   79   86 1   
    81   80   81 1   
    82   80   83 1   
    83   80   87 1   
    84   81   82 2   
    85   81   93 1   
    86   83   84 1   
    87   83   85 1   
    88   83   88 1   
    89   84   90 1   
    90   84   91 1   
    91   84   92 1   
    92   85   89 1   
    93   93   94 1   
    94   93  101 1   
    95   94   95 1   
    96   94   97 1   
    97   94  102 1   
    98   95   96 2   
    99   95  112 1   
   100   97   98 1   
   101   97   99 1   
   102   97  103 1   
   103   98  100 1   
   104   98  104 1   
   105   98  105 1   
   106   99  106 1   
   107   99  107 1   
   108   99  108 1   
   109  100  109 1   
   110  100  110 1   
   111  100  111 1   
   112  112  113 1   
   113  112  119 1   
   114  113  114 1   
   115  113  116 1   
   116  113  120 1   
   117  114  115 2   
   118  114  126 1   
   119  116  117 1   
   120  116  118 1   
   121  116  121 1   
   122  117  123 1   
   123  117  124 1   
   124  117  125 1   
   125  118  122 1   
   126  126  127 1   
   127  126  133 1   
   128  127  128 1   
   129  127  130 1   
   130  127  134 1   
   131  128  129 2   
   132  128  140 1   
   133  130  131 1   
   134  130  132 1   
   135  130  135 1   
   136  131  137 1   
   137  131  138 1   
   138  131  139 1   
   139  132  136 1   
   140  140  141 1   
   141  140  149 1   
   142  141  142 1   
   143  141  144 1   
   144  141  150 1   
   145  142  143 2   
   146  142  162 1   
   147  144  145 1   
   148  144  151 1   
   149  144  152 1   
   150  145  146 1   
   151  145  153 1   
   152  145  154 1   
   153  146  147 1   
   154  146  155 1   
   155  146  156 1   
   156  147  148 1   
   157  147  157 1   
   158  147  158 1   
   159  148  159 1   
   160  148  160 1   
   161  148  161 1   
   162  162  163 1   
   163  162  171 1   
   164  163  164 1   
   165  163  166 1   
   166  163  172 1   
   167  164  165 2   
   168  164  177 1   
   169  166  167 1   
   170  166  173 1   
   171  166  174 1   
   172  167  168 1   
   173  167  175 1   
   174  167  176 1   
   175  168  169 1   
   176  168  170 1   
   177  177  178 1   
   178  177  182 1   
   179  178  179 1   
   180  178  180 1   
   181  178  181 1   
   182  184  185 1   
   183  184  186 1   
   184  187  188 1   
   185  187  189 1   
@<TRIPOS>SUBSTRUCTURE
     1 MOL         1 TEMP              0 ****  ****    0 ROOT
