@<TRIPOS>MOLECULE
MOL
  176   174     1     0     0
SMALL
resp


@<TRIPOS>ATOM
      1 C1          0.0640    4.6040    6.1320 c3        1 MOL     -0.275179
      2 C2          0.0150    3.7460    4.8080 c         1 MOL      0.695246
      3 O1          0.9950    3.4990    4.1150 o         1 MOL     -0.605164
      4 H1         -0.7690    5.3080    6.1380 hc        1 MOL      0.072664
      5 H2         -0.0130    3.9450    6.9960 hc        1 MOL      0.072664
      6 H3          1.0040    5.1530    6.1760 hc        1 MOL      0.072664
      7 N1         -1.1370    3.2700    4.3450 n         1 MOL     -0.595278
      8 C3         -1.3610    2.8350    2.9490 c3        1 MOL      0.138871
      9 C4         -1.4870    4.0850    2.0260 c         1 MOL      0.707587
     10 O2         -2.0630    5.1060    2.3410 o         1 MOL     -0.587437
     11 C5         -2.6880    2.0140    2.9400 c3        1 MOL     -0.088146
     12 C6         -2.9270    1.2560    1.6500 c         1 MOL      0.793804
     13 O3         -2.7960    1.9940    0.6410 o         1 MOL     -0.778078
     14 O4         -3.1530   -0.0250    1.5220 o         1 MOL     -0.778078
     15 H4         -1.9380    3.4200    4.9340 hn        1 MOL      0.284913
     16 H5         -0.5000    2.2990    2.5630 h1        1 MOL      0.124092
     17 H6         -3.5700    2.6340    3.1210 hc        1 MOL      0.011420
     18 H7         -2.6550    1.2350    3.6990 hc        1 MOL      0.011420
     19 N2         -0.8200    3.9520    0.8440 n         1 MOL     -0.528380
     20 C7         -0.7980    5.0610   -0.1060 c3        1 MOL     -0.047181
     21 C8         -2.0560    5.2770   -0.8640 c         1 MOL      0.581219
     22 O5         -2.2640    6.3690   -1.3510 o         1 MOL     -0.608363
     23 C9          0.3600    4.7490   -0.9700 c3        1 MOL      0.130304
     24 C10         0.7050    5.8970   -1.9580 c3        1 MOL     -0.448254
     25 C11         2.1060    5.8040   -2.6100 c3        1 MOL      0.322181
     26 C12         2.5200    7.0920   -3.3310 c3        1 MOL      0.017499
     27 N3          3.9130    7.0820   -3.6750 n4        1 MOL     -0.453769
     28 H8         -0.5660    3.0140    0.5780 hn        1 MOL      0.202371
     29 H9         -0.5870    5.9830    0.4460 h1        1 MOL      0.103269
     30 H10         0.1400    3.8650   -1.5660 hc        1 MOL      0.069471
     31 H11         1.1480    4.5320   -0.2540 hc        1 MOL      0.069471
     32 H12         0.6410    6.8120   -1.3760 hc        1 MOL      0.115646
     33 H13        -0.0080    5.8140   -2.7870 hc        1 MOL      0.115646
     34 H14         2.2050    4.9680   -3.2950 hc        1 MOL     -0.052089
     35 H15         2.8400    5.6080   -1.8250 hc        1 MOL     -0.052089
     36 H16         2.4060    7.8790   -2.5830 hx        1 MOL      0.070178
     37 H17         1.8170    7.1910   -4.1610 hx        1 MOL      0.070178
     38 H18         3.9360    6.5700   -4.5420 hn        1 MOL      0.358477
     39 H19         4.2670    8.0170   -3.8250 hn        1 MOL      0.358477
     40 H20         4.4090    6.6190   -2.9350 hn        1 MOL      0.358477
     41 N4         -2.8950    4.2700   -1.0890 n         1 MOL     -0.208298
     42 C13        -3.9870    4.2030   -2.0920 c3        1 MOL     -0.015199
     43 C14        -5.3170    3.7320   -1.4450 c         1 MOL      0.515112
     44 O6         -6.4090    3.8240   -1.9470 o         1 MOL     -0.550808
     45 C15        -3.5290    3.2350   -3.2050 c3        1 MOL     -0.041365
     46 C16        -2.9080    1.9640   -2.6200 c         1 MOL      0.593397
     47 O7         -1.6650    1.8140   -2.3440 o         1 MOL     -0.681477
     48 O8         -3.7120    1.1150   -2.1560 o         1 MOL     -0.681477
     49 H21        -2.6910    3.4080   -0.5990 hn        1 MOL      0.033867
     50 H22        -4.3080    5.1430   -2.5410 h1        1 MOL      0.095071
     51 H23        -2.7270    3.6360   -3.8180 hc        1 MOL      0.023193
     52 H24        -4.3410    3.0650   -3.9160 hc        1 MOL      0.023193
     53 N5         -5.2160    3.0300   -0.3000 n         1 MOL     -0.352160
     54 C17        -6.3660    2.5490    0.5220 c3        1 MOL     -0.141530
     55 C18        -6.7740    1.0990    0.1780 c         1 MOL      0.481371
     56 O9         -7.7940    0.6380    0.7190 o         1 MOL     -0.576418
     57 H25        -4.2820    2.7690   -0.0090 hn        1 MOL      0.293605
     58 H26        -7.1600    3.2790    0.4200 h1        1 MOL      0.118884
     59 H27        -6.1030    2.5720    1.5830 h1        1 MOL      0.118884
     60 N6         -6.1140    0.3650   -0.6980 n         1 MOL     -0.231127
     61 C19        -6.6290   -0.9270   -1.1080 c3        1 MOL      0.043367
     62 C20        -6.6480   -1.9390    0.0620 c         1 MOL      0.489537
     63 O10        -7.4110   -2.8960   -0.0700 o         1 MOL     -0.566071
     64 C21        -5.7440   -1.2890   -2.3310 c3        1 MOL     -0.224293
     65 C22        -4.5940   -2.1300   -1.9240 c         1 MOL      0.659370
     66 N7         -4.4920   -3.3030   -2.4680 n         1 MOL     -0.738744
     67 O11        -3.7040   -1.8000   -1.1350 o         1 MOL     -0.615116
     68 H28        -5.5050    0.8750   -1.3130 hn        1 MOL      0.241586
     69 H29        -7.6540   -0.9320   -1.4660 h1        1 MOL      0.081920
     70 H30        -5.4390   -0.4240   -2.9270 hc        1 MOL      0.083548
     71 H31        -6.3840   -1.8420   -3.0220 hc        1 MOL      0.083548
     72 H32        -5.2900   -3.7340   -2.8950 hn        1 MOL      0.331028
     73 H33        -3.7210   -3.9420   -2.2930 hn        1 MOL      0.331028
     74 N8         -5.9020   -1.7770    1.1520 n         1 MOL     -0.190733
     75 C23        -5.8280   -2.7370    2.2140 c3        1 MOL     -0.189700
     76 C24        -4.5360   -3.4980    2.3420 c         1 MOL      0.526083
     77 O12        -4.4990   -4.3390    3.1980 o         1 MOL     -0.564652
     78 H34        -5.1790   -1.0730    1.1790 hn        1 MOL      0.202107
     79 H35        -6.7010   -3.3920    2.1200 h1        1 MOL      0.123280
     80 H36        -5.9540   -2.2150    3.1630 h1        1 MOL      0.123280
     81 N9         -3.4220   -3.2530    1.6000 n         1 MOL     -0.190950
     82 C25        -2.0840   -3.8580    1.7820 c3        1 MOL      0.069015
     83 C26        -0.9060   -3.0560    1.3030 c         1 MOL      0.642911
     84 O13        -1.1060   -2.1210    0.5990 o         1 MOL     -0.595439
     85 C27        -2.0800   -5.2690    1.0970 c3        1 MOL     -0.213943
     86 C28        -2.3860   -5.4330   -0.3260 ca        1 MOL      0.100291
     87 C29        -1.4190   -5.1520   -1.2610 ca        1 MOL     -0.131460
     88 C30        -3.6970   -5.8380   -0.7280 ca        1 MOL     -0.131460
     89 C31        -1.6910   -5.3310   -2.6010 ca        1 MOL     -0.292281
     90 C32        -3.8300   -6.1850   -2.0840 ca        1 MOL     -0.292281
     91 C33        -2.8630   -5.9720   -3.0780 ca        1 MOL      0.369575
     92 O14        -3.0160   -6.3050   -4.4180 oh        1 MOL     -0.528507
     93 H37        -3.3750   -2.5220    0.9080 hn        1 MOL      0.124984
     94 H38        -1.9150   -4.0890    2.8390 h1        1 MOL      0.055281
     95 H39        -2.8790   -5.7590    1.6600 hc        1 MOL      0.071963
     96 H40        -1.1780   -5.7640    1.4460 hc        1 MOL      0.071963
     97 H41        -0.4620   -4.7600   -0.9480 ha        1 MOL      0.156491
     98 H42        -4.5240   -6.0290   -0.0580 ha        1 MOL      0.156491
     99 H43        -0.9030   -5.2050   -3.3180 ha        1 MOL      0.134634
    100 H44        -4.8360   -6.4000   -2.3920 ha        1 MOL      0.134634
    101 H45        -3.8990   -6.6470   -4.6010 ho        1 MOL      0.396567
    102 N10         0.2700   -3.5660    1.6510 n         1 MOL     -0.627414
    103 C34         1.4750   -2.7580    1.6460 c3        1 MOL     -0.071602
    104 C35         2.6240   -3.6080    1.0550 c         1 MOL      0.530623
    105 O15         3.0120   -4.6690    1.5770 o         1 MOL     -0.526673
    106 C36         1.8510   -2.2750    3.0500 c3        1 MOL      0.049600
    107 C37         0.7920   -1.1340    3.4650 c3        1 MOL     -0.065907
    108 C38         3.1900   -1.6130    3.0710 c3        1 MOL     -0.127247
    109 C39         0.7780   -0.7310    4.9610 c3        1 MOL     -0.167765
    110 H46         0.4060   -4.3910    2.2170 hn        1 MOL      0.367198
    111 H47         1.3810   -1.9060    0.9660 h1        1 MOL      0.162437
    112 H48         1.8020   -3.1510    3.6980 hc        1 MOL      0.041787
    113 H49        -0.2060   -1.5300    3.2850 hc        1 MOL      0.056822
    114 H50         0.8350   -0.1910    2.9340 hc        1 MOL      0.056822
    115 H51         4.0290   -2.2760    2.8840 hc        1 MOL      0.036314
    116 H52         3.1670   -0.8630    2.2850 hc        1 MOL      0.036314
    117 H53         3.5350   -1.2670    4.0470 hc        1 MOL      0.036314
    118 H54        -0.0290   -0.0210    5.1340 hc        1 MOL      0.046677
    119 H55         0.7630   -1.5900    5.6250 hc        1 MOL      0.046677
    120 H56         1.7150   -0.3140    5.3170 hc        1 MOL      0.046677
    121 N11         3.2640   -3.0410    0.0250 n         1 MOL     -0.367191
    122 C40         4.5790   -3.5430   -0.4200 c3        1 MOL      0.040385
    123 C41         5.7390   -2.7370    0.2230 c         1 MOL      0.360002
    124 O16         5.5510   -1.6300    0.6740 o         1 MOL     -0.188373
    125 C42         4.7900   -3.4230   -1.9230 c3        1 MOL     -0.012349
    126 O17         4.5450   -2.1170   -2.4090 oh        1 MOL     -0.429921
    127 H57         3.0940   -2.0540   -0.1510 hn        1 MOL      0.207184
    128 H58         4.6110   -4.5790   -0.1040 h1        1 MOL      0.090515
    129 H59         4.0790   -3.9950   -2.5200 h1        1 MOL      0.041713
    130 H60         5.7970   -3.7960   -2.0810 h1        1 MOL      0.041713
    131 H61         4.2530   -2.2810   -3.3060 ho        1 MOL      0.391485
    132 N12         6.9390   -3.3590    0.1640 n         1 MOL     -0.426396
    133 C43         8.1810   -2.6660    0.5280 c3        1 MOL      0.027447
    134 C44         8.3050   -1.3400   -0.2710 c         1 MOL      0.500593
    135 O18         8.7330   -0.2950    0.2670 o         1 MOL     -0.500365
    136 C45         9.3320   -3.6040    0.2650 c3        1 MOL     -0.250126
    137 H62         7.0460   -4.2720   -0.2730 hn        1 MOL      0.311662
    138 H63         8.0330   -2.4390    1.5750 h1        1 MOL      0.114422
    139 H64        10.2990   -3.1760    0.5450 hc        1 MOL      0.084856
    140 H65         9.2200   -4.5940    0.7070 hc        1 MOL      0.084856
    141 H66         9.3140   -3.8660   -0.7970 hc        1 MOL      0.084856
    142 N13         7.9810   -1.2660   -1.5480 n         1 MOL     -0.463361
    143 C46         7.8770    0.0090   -2.3470 c3        1 MOL      0.164433
    144 C47         6.9460    1.0530   -1.6450 c         1 MOL      0.374553
    145 O19         7.1930    2.2410   -1.6190 o         1 MOL     -0.530182
    146 C48         7.3660   -0.2840   -3.7520 c3        1 MOL     -0.281431
    147 H67         7.6850   -2.0830   -2.0770 hn        1 MOL      0.315341
    148 H68         8.8940    0.3830   -2.4390 h1        1 MOL      0.082460
    149 H69         6.3230   -0.6200   -3.8320 hc        1 MOL      0.075457
    150 H70         7.5610    0.5960   -4.3590 hc        1 MOL      0.075457
    151 H71         7.8750   -1.1930   -4.0690 hc        1 MOL      0.075457
    152 N14         5.8300    0.5690   -1.0770 n         1 MOL      0.111710
    153 C49         4.8710    1.4530   -0.4810 c3        1 MOL     -0.019869
    154 C50         5.3030    1.8090    0.9630 c         1 MOL      0.572562
    155 O20         5.2120    2.9380    1.3380 o         1 MOL     -0.548703
    156 C51         3.5320    0.7340   -0.5690 c3        1 MOL     -0.096833
    157 C52         2.3860    1.5970    0.0290 c3        1 MOL      0.082778
    158 C53         0.9660    1.0920   -0.1530 c         1 MOL      0.681787
    159 O21         0.7560    0.4190   -1.2460 o         1 MOL     -0.768021
    160 O22        -0.0350    1.3630    0.5830 o         1 MOL     -0.768021
    161 H72         5.5130   -0.3870   -1.1220 hn        1 MOL     -0.244076
    162 H73         4.9170    2.4080   -1.0060 h1        1 MOL      0.017781
    163 H74         3.5460   -0.1110    0.1200 hc        1 MOL      0.059259
    164 H75         3.2760    0.5830   -1.6130 hc        1 MOL      0.059259
    165 H76         2.4410    2.6280   -0.3040 hc        1 MOL     -0.012462
    166 H77         2.4570    1.6520    1.1150 hc        1 MOL     -0.012462
    167 N15         5.8620    0.8020    1.7480 n         1 MOL     -0.224877
    168 C54         6.4980    1.0950    3.0390 c3        1 MOL     -0.312546
    169 H78         7.5770    1.1640    2.9040 h1        1 MOL      0.121897
    170 H79         6.1200    2.0420    3.4240 h1        1 MOL      0.121897
    171 H80         6.2700    0.2970    3.7460 h1        1 MOL      0.121897
    172 H81         6.0510   -0.0520    1.2470 hn        1 MOL      0.119219
    173 Ca1        -1.7720   -0.0890   -0.7860 Ca        1 MOL      1.718952
    174 O23        -0.8720   -1.8600   -2.4450 oh        1 MOL     -0.768552
    175 H82        -1.3060   -2.1760   -3.2360 ho        1 MOL      0.389164
    176 H83        -0.2340   -2.5380   -2.2240 ho        1 MOL      0.389164
@<TRIPOS>BOND
     1    1    2 1   
     2    1    4 1   
     3    1    5 1   
     4    1    6 1   
     5    2    3 2   
     6    2    7 1   
     7    7    8 1   
     8    7   15 1   
     9    8    9 1   
    10    8   11 1   
    11    8   16 1   
    12    9   10 2   
    13    9   19 1   
    14   11   12 1   
    15   11   17 1   
    16   11   18 1   
    17   12   13 1   
    18   12   14 1   
    19   19   20 1   
    20   19   28 1   
    21   20   21 1   
    22   20   23 1   
    23   20   29 1   
    24   21   22 2   
    25   21   41 1   
    26   23   24 1   
    27   23   30 1   
    28   23   31 1   
    29   24   25 1   
    30   24   32 1   
    31   24   33 1   
    32   25   26 1   
    33   25   34 1   
    34   25   35 1   
    35   26   27 1   
    36   26   36 1   
    37   26   37 1   
    38   27   38 1   
    39   27   39 1   
    40   27   40 1   
    41   41   42 1   
    42   41   49 1   
    43   42   43 1   
    44   42   45 1   
    45   42   50 1   
    46   43   44 2   
    47   43   53 1   
    48   45   46 1   
    49   45   51 1   
    50   45   52 1   
    51   46   47 1   
    52   46   48 1   
    53   53   54 1   
    54   53   57 1   
    55   54   55 1   
    56   54   58 1   
    57   54   59 1   
    58   55   56 2   
    59   55   60 1   
    60   60   61 1   
    61   60   68 1   
    62   61   62 1   
    63   61   64 1   
    64   61   69 1   
    65   62   63 2   
    66   62   74 1   
    67   64   65 1   
    68   64   70 1   
    69   64   71 1   
    70   65   66 1   
    71   65   67 2   
    72   66   72 1   
    73   66   73 1   
    74   74   75 1   
    75   74   78 1   
    76   75   76 1   
    77   75   79 1   
    78   75   80 1   
    79   76   77 2   
    80   76   81 1   
    81   81   82 1   
    82   81   93 1   
    83   82   83 1   
    84   82   85 1   
    85   82   94 1   
    86   83   84 2   
    87   83  102 1   
    88   85   86 1   
    89   85   95 1   
    90   85   96 1   
    91   86   87 ar  
    92   86   88 ar  
    93   87   89 ar  
    94   87   97 1   
    95   88   90 ar  
    96   88   98 1   
    97   89   91 ar  
    98   89   99 1   
    99   90   91 ar  
   100   90  100 1   
   101   91   92 1   
   102   92  101 1   
   103  102  103 1   
   104  102  110 1   
   105  103  104 1   
   106  103  106 1   
   107  103  111 1   
   108  104  105 2   
   109  104  121 1   
   110  106  107 1   
   111  106  108 1   
   112  106  112 1   
   113  107  109 1   
   114  107  113 1   
   115  107  114 1   
   116  108  115 1   
   117  108  116 1   
   118  108  117 1   
   119  109  118 1   
   120  109  119 1   
   121  109  120 1   
   122  121  122 1   
   123  121  127 1   
   124  122  123 1   
   125  122  125 1   
   126  122  128 1   
   127  123  124 2   
   128  123  132 1   
   129  125  126 1   
   130  125  129 1   
   131  125  130 1   
   132  126  131 1   
   133  132  133 1   
   134  132  137 1   
   135  133  134 1   
   136  133  136 1   
   137  133  138 1   
   138  134  135 2   
   139  134  142 1   
   140  136  139 1   
   141  136  140 1   
   142  136  141 1   
   143  142  143 1   
   144  142  147 1   
   145  143  144 1   
   146  143  146 1   
   147  143  148 1   
   148  144  145 2   
   149  144  152 1   
   150  146  149 1   
   151  146  150 1   
   152  146  151 1   
   153  152  153 1   
   154  152  161 1   
   155  153  154 1   
   156  153  156 1   
   157  153  162 1   
   158  154  155 2   
   159  154  167 1   
   160  156  157 1   
   161  156  163 1   
   162  156  164 1   
   163  157  158 1   
   164  157  165 1   
   165  157  166 1   
   166  158  159 1   
   167  158  160 1   
   168  167  168 1   
   169  167  172 1   
   170  168  169 1   
   171  168  170 1   
   172  168  171 1   
   173  174  175 1   
   174  174  176 1   
@<TRIPOS>SUBSTRUCTURE
     1 MOL         1 TEMP              0 ****  ****    0 ROOT
