@<TRIPOS>MOLECULE
MOL
  175   173     1     0     0
SMALL
resp


@<TRIPOS>ATOM
      1 C1          0.6950    4.2820    5.0260 c3        1 MOL     -0.401712
      2 C2         -0.0660    4.1750    3.7070 c         1 MOL      0.806289
      3 O1          0.5360    4.3910    2.7150 o         1 MOL     -0.564147
      4 H1          0.8200    5.3330    5.2890 hc        1 MOL      0.090972
      5 H2          0.1350    3.7760    5.8110 hc        1 MOL      0.090972
      6 H3          1.6740    3.8160    4.9200 hc        1 MOL      0.090972
      7 N1         -1.3780    4.0410    3.6950 n         1 MOL     -0.706881
      8 C3         -2.1330    3.7270    2.4720 c3        1 MOL      0.126290
      9 C4         -2.3030    4.9740    1.5090 c         1 MOL      0.583031
     10 O2         -2.5690    6.0950    2.0380 o         1 MOL     -0.557286
     11 C5         -3.5200    3.1460    2.7800 c3        1 MOL     -0.110252
     12 C6         -4.2360    2.7410    1.5610 c         1 MOL      0.588275
     13 O3         -5.4710    3.0470    1.4460 o         1 MOL     -0.638755
     14 O4         -3.6570    2.0720    0.6710 o         1 MOL     -0.638755
     15 H4         -1.8980    4.1040    4.5600 hn        1 MOL      0.333684
     16 H5         -1.5370    2.9480    1.9950 h1        1 MOL      0.079888
     17 H6         -4.1820    3.8220    3.3240 hc        1 MOL      0.022643
     18 H7         -3.3840    2.3340    3.4990 hc        1 MOL      0.022643
     19 N2         -2.2810    4.7070    0.1750 n         1 MOL     -0.458384
     20 C7         -2.7910    5.6230   -0.8650 c3        1 MOL      0.119806
     21 C8         -3.6040    4.8420   -2.0160 c         1 MOL      0.525847
     22 O5         -3.7040    5.3670   -3.1510 o         1 MOL     -0.569422
     23 C9         -1.6050    6.4530   -1.4150 c3        1 MOL     -0.192973
     24 H8         -1.9010    3.8600   -0.2400 hn        1 MOL      0.284564
     25 H9         -3.4480    6.3440   -0.3870 h1        1 MOL      0.040064
     26 H10        -0.7790    5.8320   -1.7480 hc        1 MOL      0.048213
     27 H11        -1.8550    7.1380   -2.2320 hc        1 MOL      0.048213
     28 H12        -1.1540    7.0240   -0.6070 hc        1 MOL      0.048213
     29 N3         -4.2270    3.7050   -1.7190 n         1 MOL     -0.406684
     30 C10        -5.0430    3.0780   -2.7570 c3        1 MOL      0.050419
     31 C11        -6.1890    2.2660   -2.2980 c         1 MOL      0.405514
     32 O6         -7.0300    2.0200   -3.1990 o         1 MOL     -0.558052
     33 C12        -4.1450    2.2000   -3.5900 c3        1 MOL     -0.124158
     34 C13        -3.4870    1.0840   -2.7800 c         1 MOL      0.679802
     35 O7         -4.0700    0.3920   -1.8920 o         1 MOL     -0.699139
     36 O8         -2.2240    0.9560   -2.9510 o         1 MOL     -0.699139
     37 H13        -4.1010    3.3640   -0.7740 hn        1 MOL      0.234246
     38 H14        -5.4420    3.8880   -3.3750 h1        1 MOL      0.088098
     39 H15        -3.3520    2.8880   -3.9050 hc        1 MOL      0.043167
     40 H16        -4.7050    1.8000   -4.4310 hc        1 MOL      0.043167
     41 N4         -6.3200    1.9080   -1.0070 n         1 MOL     -0.116899
     42 C14        -7.4530    1.0890   -0.6030 c3        1 MOL     -0.225526
     43 C15        -7.5040   -0.3550   -1.0750 c         1 MOL      0.570849
     44 O9         -8.6210   -0.8500   -1.2060 o         1 MOL     -0.613486
     45 H17        -5.5530    2.1710   -0.4050 hn        1 MOL      0.131760
     46 H18        -8.3690    1.5340   -0.9700 h1        1 MOL      0.103048
     47 H19        -7.4420    1.1290    0.4930 h1        1 MOL      0.103048
     48 N5         -6.3900   -1.0690   -1.1970 n         1 MOL     -0.298201
     49 C16        -6.2660   -2.4010   -1.7900 c3        1 MOL      0.189405
     50 C17        -6.1750   -3.5160   -0.8660 c         1 MOL      0.331865
     51 O10        -6.3430   -4.6930   -1.1870 o         1 MOL     -0.509807
     52 C18        -5.1360   -2.4050   -2.8420 c3        1 MOL     -0.250637
     53 C19        -3.7030   -2.6040   -2.3350 c         1 MOL      0.647474
     54 N6         -2.8140   -3.0200   -3.2030 n         1 MOL     -0.658865
     55 O11        -3.3320   -2.2930   -1.2070 o         1 MOL     -0.565721
     56 H20        -5.5480   -0.5190   -1.2300 hn        1 MOL      0.201485
     57 H21        -7.1450   -2.6780   -2.3610 h1        1 MOL      0.060175
     58 H22        -5.2380   -1.5060   -3.4450 hc        1 MOL      0.068378
     59 H23        -5.3360   -3.2780   -3.4530 hc        1 MOL      0.068378
     60 H24        -2.9940   -3.3560   -4.1430 hn        1 MOL      0.329765
     61 H25        -1.8420   -2.8520   -2.9970 hn        1 MOL      0.329765
     62 N7         -6.1130   -3.1850    0.4370 n         1 MOL     -0.124644
     63 C20        -6.1560   -4.1950    1.4970 c3        1 MOL     -0.220151
     64 C21        -4.7250   -4.6510    1.8980 c         1 MOL      0.497874
     65 O12        -4.5950   -5.5590    2.7180 o         1 MOL     -0.570452
     66 H26        -6.4270   -2.2650    0.7030 hn        1 MOL      0.168593
     67 H27        -6.7380   -5.0640    1.1790 h1        1 MOL      0.109837
     68 H28        -6.6810   -3.7430    2.3430 h1        1 MOL      0.109837
     69 N8         -3.6360   -4.0800    1.2910 n         1 MOL     -0.256278
     70 C22        -2.2360   -4.4790    1.6010 c3        1 MOL     -0.201273
     71 C23        -1.3320   -3.2570    1.7450 c         1 MOL      0.564192
     72 O13        -1.5770   -2.2200    1.0750 o         1 MOL     -0.617352
     73 C24        -1.6660   -5.2940    0.4080 c3        1 MOL      0.613326
     74 C25        -2.1120   -6.8010    0.3800 c3        1 MOL     -0.367986
     75 O14        -1.9560   -4.7680   -0.8550 oh        1 MOL     -0.630608
     76 H29        -3.8170   -3.3750    0.5940 hn        1 MOL      0.261346
     77 H30        -2.2170   -5.0470    2.5300 h1        1 MOL      0.092789
     78 H31        -0.5890   -5.4210    0.5260 h1        1 MOL     -0.051482
     79 H32        -1.6140   -3.8790   -0.9860 ho        1 MOL      0.324693
     80 H33        -1.8140   -7.3120   -0.5330 hc        1 MOL      0.079518
     81 H34        -1.5390   -7.3520    1.1400 hc        1 MOL      0.079518
     82 H35        -3.1720   -6.8380    0.6520 hc        1 MOL      0.079518
     83 N9         -0.3020   -3.2990    2.5250 n         1 MOL     -0.419821
     84 C26         0.8370   -2.4410    2.3920 c3        1 MOL      0.058182
     85 C27         1.7230   -2.8300    1.2110 c         1 MOL      0.390230
     86 O15         2.1380   -4.0330    1.1090 o         1 MOL     -0.551981
     87 C28         1.6290   -2.5020    3.7790 c3        1 MOL     -0.021652
     88 C29         1.0000   -1.6690    4.9230 c3        1 MOL      0.348286
     89 C30         3.0650   -2.0460    3.5600 c3        1 MOL     -0.212098
     90 C31         1.7520   -1.8340    6.2360 c3        1 MOL     -0.411599
     91 H36        -0.0360   -4.1990    2.9060 hn        1 MOL      0.244353
     92 H37         0.5100   -1.4140    2.3130 h1        1 MOL     -0.020169
     93 H38         1.5740   -3.5260    4.1510 hc        1 MOL      0.031852
     94 H39        -0.0210   -2.0080    5.0850 hc        1 MOL     -0.064602
     95 H40         0.8620   -0.6120    4.6820 hc        1 MOL     -0.064602
     96 H41         3.1160   -1.2890    2.7740 hc        1 MOL      0.049582
     97 H42         3.6200   -1.7560    4.4500 hc        1 MOL      0.049582
     98 H43         3.6870   -2.8780    3.2240 hc        1 MOL      0.049582
     99 H44         2.5700   -1.1130    6.2280 hc        1 MOL      0.087468
    100 H45         1.1000   -1.5370    7.0460 hc        1 MOL      0.087468
    101 H46         2.0500   -2.8890    6.2460 hc        1 MOL      0.087468
    102 N10         1.8970   -1.8880    0.2520 n         1 MOL     -0.106070
    103 C32         2.6500   -2.0390   -0.9470 c3        1 MOL     -0.047166
    104 C33         4.1190   -1.6820   -0.6740 c         1 MOL      0.559144
    105 O16         4.4580   -1.0680    0.3500 o         1 MOL     -0.450535
    106 C34         1.9530   -1.1680   -1.9970 c3        1 MOL     -0.166297
    107 C35         0.5160   -1.6940   -2.2620 c         1 MOL      0.692448
    108 O17        -0.3260   -1.1260   -1.5470 o         1 MOL     -0.658948
    109 O18         0.1440   -2.3430   -3.2520 o         1 MOL     -0.658948
    110 H47         1.5540   -0.9570    0.4190 hn        1 MOL      0.191441
    111 H48         2.5600   -3.0700   -1.2860 h1        1 MOL      0.056092
    112 H49         2.5250   -1.4040   -2.8990 hc        1 MOL      0.044428
    113 H50         2.0590   -0.0950   -1.8680 hc        1 MOL      0.044428
    114 N11         5.0230   -1.9700   -1.5880 n         1 MOL     -0.648292
    115 C36         6.4750   -1.6770   -1.3580 c3        1 MOL      0.407097
    116 C37         6.7570   -0.1850   -1.1970 c         1 MOL      0.192795
    117 O19         7.5290    0.1660   -0.2810 o         1 MOL     -0.429450
    118 C38         7.3890   -2.2940   -2.3920 c3        1 MOL     -0.187539
    119 C39         8.8380   -1.8910   -2.1840 ca        1 MOL      0.048668
    120 C40         9.4730   -0.8100   -2.8940 ca        1 MOL     -0.160947
    121 C41         9.5280   -2.5540   -1.1720 ca        1 MOL     -0.160947
    122 C42        10.8030   -0.4800   -2.5620 ca        1 MOL     -0.112363
    123 C43        10.7770   -2.1840   -0.6950 ca        1 MOL     -0.112363
    124 C44        11.4430   -1.1200   -1.4030 ca        1 MOL     -0.096648
    125 H51         4.7970   -2.2690   -2.5270 hn        1 MOL      0.326897
    126 H52         6.6550   -2.1230   -0.3760 h1        1 MOL      0.043184
    127 H53         7.0010   -2.0550   -3.3850 hc        1 MOL      0.043915
    128 H54         7.1120   -3.3450   -2.2630 hc        1 MOL      0.043915
    129 H55         8.9180   -0.2490   -3.6340 ha        1 MOL      0.122674
    130 H56         9.0190   -3.3990   -0.7300 ha        1 MOL      0.122674
    131 H57        11.3130    0.2930   -3.1170 ha        1 MOL      0.120331
    132 H58        11.2290   -2.8070    0.0620 ha        1 MOL      0.120331
    133 H59        12.4860   -0.9340   -1.1960 ha        1 MOL      0.093737
    134 N12         6.0510    0.7150   -1.8920 n         1 MOL      0.074454
    135 C45         6.3550    2.1230   -1.7180 c3        1 MOL      0.102854
    136 C46         5.7850    2.6970   -0.4170 c         1 MOL      0.243045
    137 O20         6.3280    3.6530    0.1650 o         1 MOL     -0.491037
    138 C47         5.7680    2.7730   -3.0240 c3        1 MOL     -0.028147
    139 C48         5.6310    1.6160   -4.0260 c3        1 MOL     -0.157498
    140 C49         5.2740    0.4680   -3.1590 c3        1 MOL     -0.036651
    141 H60         7.4350    2.2370   -1.6040 h1        1 MOL      0.036859
    142 H61         4.7780    3.1650   -2.7760 hc        1 MOL      0.035831
    143 H62         6.4890    3.5330   -3.3240 hc        1 MOL      0.035831
    144 H63         4.8140    1.7240   -4.7290 hc        1 MOL      0.053510
    145 H64         6.6420    1.4980   -4.4350 hc        1 MOL      0.053510
    146 H65         4.1900    0.4470   -3.0800 h1        1 MOL      0.062089
    147 H66         5.5900   -0.4390   -3.6760 h1        1 MOL      0.062089
    148 N13         4.7280    2.0330    0.0430 n         1 MOL     -0.057543
    149 C50         4.0790    2.3210    1.3140 c3        1 MOL     -0.057609
    150 C51         4.9920    1.8690    2.4610 c         1 MOL      0.421087
    151 O21         4.9890    2.5140    3.5160 o         1 MOL     -0.549784
    152 C52         2.5810    1.8680    1.3280 c3        1 MOL     -0.055497
    153 C53         1.5880    2.4220    0.3050 c3        1 MOL     -0.045184
    154 C54         0.1830    1.8010    0.3250 c         1 MOL      0.358573
    155 O22        -0.7500    2.2100   -0.4120 o         1 MOL     -0.540085
    156 O23        -0.0800    0.6990    0.9850 o         1 MOL     -0.540085
    157 H67         4.4650    1.1780   -0.4170 hn        1 MOL      0.030686
    158 H68         3.9870    3.4090    1.3940 h1        1 MOL      0.113348
    159 H69         2.1560    2.0770    2.3080 hc        1 MOL      0.037366
    160 H70         2.5290    0.7810    1.2990 hc        1 MOL      0.037366
    161 H71         2.1020    2.2140   -0.6310 hc        1 MOL      0.062378
    162 H72         1.5250    3.5120    0.3490 hc        1 MOL      0.062378
    163 N14         5.8900    0.9190    2.1320 n         1 MOL      0.024121
    164 C55         6.9450    0.4460    3.0350 c3        1 MOL     -0.261256
    165 H73         7.4220    1.3010    3.5140 h1        1 MOL      0.093839
    166 H74         6.5100   -0.2010    3.7960 h1        1 MOL      0.093839
    167 H75         7.6890   -0.1110    2.4650 h1        1 MOL      0.093839
    168 H76         5.8450    0.5780    1.1920 hn        1 MOL      0.027610
    169 Ca1        -2.1470   -0.0110   -0.2670 Ca        1 MOL      1.654004
    170 O24        -1.9810    0.2980    2.7420 oh        1 MOL     -0.728014
    171 H77        -1.2050    0.5760    2.2620 ho        1 MOL      0.351089
    172 H78        -1.8340    0.6260    3.6340 ho        1 MOL      0.351089
    173 O25        -4.0790   -0.9020    1.5410 oh        1 MOL     -0.728014
    174 H79        -4.8090   -1.3190    2.0130 ho        1 MOL      0.351089
    175 H80        -3.5310   -0.5250    2.2360 ho        1 MOL      0.351089
@<TRIPOS>BOND
     1    1    2 1   
     2    1    4 1   
     3    1    5 1   
     4    1    6 1   
     5    2    3 2   
     6    2    7 1   
     7    7    8 1   
     8    7   15 1   
     9    8    9 1   
    10    8   11 1   
    11    8   16 1   
    12    9   10 2   
    13    9   19 1   
    14   11   12 1   
    15   11   17 1   
    16   11   18 1   
    17   12   13 1   
    18   12   14 1   
    19   19   20 1   
    20   19   24 1   
    21   20   21 1   
    22   20   23 1   
    23   20   25 1   
    24   21   22 2   
    25   21   29 1   
    26   23   26 1   
    27   23   27 1   
    28   23   28 1   
    29   29   30 1   
    30   29   37 1   
    31   30   31 1   
    32   30   33 1   
    33   30   38 1   
    34   31   32 2   
    35   31   41 1   
    36   33   34 1   
    37   33   39 1   
    38   33   40 1   
    39   34   35 1   
    40   34   36 1   
    41   41   42 1   
    42   41   45 1   
    43   42   43 1   
    44   42   46 1   
    45   42   47 1   
    46   43   44 2   
    47   43   48 1   
    48   48   49 1   
    49   48   56 1   
    50   49   50 1   
    51   49   52 1   
    52   49   57 1   
    53   50   51 2   
    54   50   62 1   
    55   52   53 1   
    56   52   58 1   
    57   52   59 1   
    58   53   54 1   
    59   53   55 2   
    60   54   60 1   
    61   54   61 1   
    62   62   63 1   
    63   62   66 1   
    64   63   64 1   
    65   63   67 1   
    66   63   68 1   
    67   64   65 2   
    68   64   69 1   
    69   69   70 1   
    70   69   76 1   
    71   70   71 1   
    72   70   73 1   
    73   70   77 1   
    74   71   72 2   
    75   71   83 1   
    76   73   74 1   
    77   73   75 1   
    78   73   78 1   
    79   74   80 1   
    80   74   81 1   
    81   74   82 1   
    82   75   79 1   
    83   83   84 1   
    84   83   91 1   
    85   84   85 1   
    86   84   87 1   
    87   84   92 1   
    88   85   86 2   
    89   85  102 1   
    90   87   88 1   
    91   87   89 1   
    92   87   93 1   
    93   88   90 1   
    94   88   94 1   
    95   88   95 1   
    96   89   96 1   
    97   89   97 1   
    98   89   98 1   
    99   90   99 1   
   100   90  100 1   
   101   90  101 1   
   102  102  103 1   
   103  102  110 1   
   104  103  104 1   
   105  103  106 1   
   106  103  111 1   
   107  104  105 2   
   108  104  114 1   
   109  106  107 1   
   110  106  112 1   
   111  106  113 1   
   112  107  108 1   
   113  107  109 1   
   114  114  115 1   
   115  114  125 1   
   116  115  116 1   
   117  115  118 1   
   118  115  126 1   
   119  116  117 2   
   120  116  134 1   
   121  118  119 1   
   122  118  127 1   
   123  118  128 1   
   124  119  120 ar  
   125  119  121 ar  
   126  120  122 ar  
   127  120  129 1   
   128  121  123 ar  
   129  121  130 1   
   130  122  124 ar  
   131  122  131 1   
   132  123  124 ar  
   133  123  132 1   
   134  124  133 1   
   135  134  135 1   
   136  134  140 1   
   137  135  136 1   
   138  135  138 1   
   139  135  141 1   
   140  136  137 2   
   141  136  148 1   
   142  138  139 1   
   143  138  142 1   
   144  138  143 1   
   145  139  140 1   
   146  139  144 1   
   147  139  145 1   
   148  140  146 1   
   149  140  147 1   
   150  148  149 1   
   151  148  157 1   
   152  149  150 1   
   153  149  152 1   
   154  149  158 1   
   155  150  151 2   
   156  150  163 1   
   157  152  153 1   
   158  152  159 1   
   159  152  160 1   
   160  153  154 1   
   161  153  161 1   
   162  153  162 1   
   163  154  155 1   
   164  154  156 1   
   165  163  164 1   
   166  163  168 1   
   167  164  165 1   
   168  164  166 1   
   169  164  167 1   
   170  170  171 1   
   171  170  172 1   
   172  173  174 1   
   173  173  175 1   
@<TRIPOS>SUBSTRUCTURE
     1 MOL         1 TEMP              0 ****  ****    0 ROOT
