@<TRIPOS>MOLECULE
MOL
  175   173     1     0     0
SMALL
resp


@<TRIPOS>ATOM
      1 C1          0.3170    4.0440    5.4320 c3        1 MOL     -0.371224
      2 C2         -0.3360    3.7120    4.0990 c         1 MOL      0.812187
      3 O1          0.4320    3.6770    3.1790 o         1 MOL     -0.577528
      4 H1         -0.2980    4.7690    5.9670 hc        1 MOL      0.082329
      5 H2          0.4090    3.1370    6.0280 hc        1 MOL      0.082329
      6 H3          1.3060    4.4670    5.2570 hc        1 MOL      0.082329
      7 N1         -1.6360    3.5740    3.9910 n         1 MOL     -0.744081
      8 C3         -2.2360    3.3380    2.6340 c3        1 MOL      0.138165
      9 C4         -2.2600    4.6190    1.8200 c         1 MOL      0.705296
     10 O2         -2.6730    5.6380    2.2820 o         1 MOL     -0.574112
     11 C5         -3.6790    2.7920    2.9000 c3        1 MOL     -0.167279
     12 C6         -4.2580    2.1330    1.6130 c         1 MOL      0.557569
     13 O3         -5.4970    1.9360    1.5150 o         1 MOL     -0.643395
     14 O4         -3.5030    1.7980    0.7120 o         1 MOL     -0.643395
     15 H4         -2.2290    3.6130    4.8100 hn        1 MOL      0.351496
     16 H5         -1.6540    2.5760    2.1170 h1        1 MOL      0.008717
     17 H6         -4.4080    3.4990    3.3140 hc        1 MOL      0.042668
     18 H7         -3.7050    2.0630    3.7130 hc        1 MOL      0.042668
     19 N2         -1.9080    4.4280    0.4870 n         1 MOL     -0.614931
     20 C7         -2.1980    5.4370   -0.5120 c3        1 MOL      0.298534
     21 C8         -3.3020    5.2090   -1.4700 c         1 MOL      0.449754
     22 O5         -3.6550    6.1170   -2.2330 o         1 MOL     -0.548177
     23 C9         -0.8720    5.8370   -1.2230 c3        1 MOL     -0.143716
     24 H8         -1.5710    3.5780    0.0680 hn        1 MOL      0.348241
     25 H9         -2.4190    6.3720    0.0110 h1        1 MOL      0.003843
     26 H10        -0.5230    5.0490   -1.8840 hc        1 MOL      0.031227
     27 H11        -1.0700    6.7410   -1.8040 hc        1 MOL      0.031227
     28 H12        -0.0500    5.8850   -0.5120 hc        1 MOL      0.031227
     29 N3         -3.9330    3.9930   -1.5210 n         1 MOL     -0.488845
     30 C10        -4.5920    3.4440   -2.7060 c3        1 MOL      0.096571
     31 C11        -5.8060    2.5070   -2.5020 c         1 MOL      0.454686
     32 O6         -6.4700    2.2600   -3.5210 o         1 MOL     -0.558509
     33 C12        -3.4570    2.6530   -3.4300 c3        1 MOL     -0.186350
     34 C13        -2.8750    1.4260   -2.7440 c         1 MOL      0.720175
     35 O7         -3.6430    0.7310   -1.9840 o         1 MOL     -0.690691
     36 O8         -1.6410    1.2450   -2.7270 o         1 MOL     -0.690691
     37 H13        -3.7900    3.3020   -0.8060 hn        1 MOL      0.306494
     38 H14        -4.9490    4.2870   -3.2900 h1        1 MOL      0.092124
     39 H15        -2.7100    3.4260   -3.5710 hc        1 MOL      0.040947
     40 H16        -3.8200    2.3940   -4.4270 hc        1 MOL      0.040947
     41 N4         -6.3030    2.1290   -1.2820 n         1 MOL     -0.322224
     42 C14        -7.5740    1.3530   -0.9720 c3        1 MOL     -0.197977
     43 C15        -7.4070   -0.1220   -1.3890 c         1 MOL      0.465985
     44 O9         -8.5430   -0.7520   -1.4510 o         1 MOL     -0.602720
     45 H17        -5.5460    2.1790   -0.6020 hn        1 MOL      0.186397
     46 H18        -8.3890    1.7110   -1.5840 h1        1 MOL      0.142978
     47 H19        -7.8730    1.4280    0.0800 h1        1 MOL      0.142978
     48 N5         -6.1850   -0.6590   -1.7510 n         1 MOL     -0.129863
     49 C16        -6.1280   -2.0340   -2.2680 c3        1 MOL      0.009666
     50 C17        -5.9530   -3.1330   -1.1880 c         1 MOL      0.380313
     51 O10        -5.9770   -4.3040   -1.5440 o         1 MOL     -0.505422
     52 C18        -5.0230   -2.1700   -3.2170 c3        1 MOL     -0.155041
     53 C19        -3.5890   -2.2180   -2.6980 c         1 MOL      0.695064
     54 N6         -2.5820   -2.2340   -3.5600 n         1 MOL     -0.661727
     55 O11        -3.3540   -2.1780   -1.5210 o         1 MOL     -0.587021
     56 H20        -5.4020   -0.0270   -1.8910 hn        1 MOL      0.163132
     57 H21        -7.0010   -2.2490   -2.8910 h1        1 MOL      0.100827
     58 H22        -5.1480   -1.3660   -3.9560 hc        1 MOL      0.031361
     59 H23        -5.0190   -3.1250   -3.7280 hc        1 MOL      0.031361
     60 H24        -2.9040   -2.0580   -4.5040 hn        1 MOL      0.307242
     61 H25        -1.6810   -1.9200   -3.2250 hn        1 MOL      0.307242
     62 N7         -5.9080   -2.7370    0.0630 n         1 MOL     -0.189765
     63 C20        -6.2520   -3.6740    1.1370 c3        1 MOL     -0.259037
     64 C21        -5.0580   -4.4550    1.6590 c         1 MOL      0.448756
     65 O12        -5.2130   -5.4470    2.4130 o         1 MOL     -0.571929
     66 H26        -5.7860   -1.7610    0.3090 hn        1 MOL      0.226317
     67 H27        -7.0480   -4.3670    0.8510 h1        1 MOL      0.133379
     68 H28        -6.6770   -3.0350    1.9090 h1        1 MOL      0.133379
     69 N8         -3.8790   -4.0050    1.2840 n         1 MOL      0.061551
     70 C22        -2.5190   -4.5480    1.4590 c3        1 MOL     -0.487102
     71 C23        -1.4620   -3.4590    1.6220 c         1 MOL      0.758252
     72 O13        -1.7230   -2.3770    1.0220 o         1 MOL     -0.744292
     73 C24        -2.0880   -5.5040    0.3770 c3        1 MOL      0.577205
     74 C25        -2.8900   -6.7100    0.3010 c3        1 MOL     -0.451766
     75 O14        -2.0850   -4.8330   -0.9260 oh        1 MOL     -0.642549
     76 H29        -3.9120   -3.1040    0.8280 hn        1 MOL      0.022092
     77 H30        -2.5630   -5.1490    2.3770 h1        1 MOL      0.115556
     78 H31        -1.0420   -5.7920    0.4980 h1        1 MOL     -0.014086
     79 H32        -2.5310   -3.9960   -0.7810 ho        1 MOL      0.413532
     80 H33        -2.7690   -7.3340    1.1790 hc        1 MOL      0.109008
     81 H34        -3.9430   -6.4430    0.2490 hc        1 MOL      0.109008
     82 H35        -2.5780   -7.3810   -0.4980 hc        1 MOL      0.109008
     83 N9         -0.3180   -3.6930    2.2500 n         1 MOL     -0.437143
     84 C26         0.9440   -2.8500    2.2020 c3        1 MOL      0.249698
     85 C27         1.5030   -2.9930    0.8660 c         1 MOL      0.373597
     86 O15         1.9070   -4.0910    0.5790 o         1 MOL     -0.554649
     87 C28         1.8710   -3.0530    3.3950 c3        1 MOL      0.079890
     88 C29         1.2270   -3.2740    4.7690 c3        1 MOL      0.020264
     89 C30         2.8720   -1.8630    3.3750 c3        1 MOL     -0.213375
     90 C31         0.5640   -2.0600    5.3940 c3        1 MOL     -0.037177
     91 H36        -0.1620   -4.6360    2.5910 hn        1 MOL      0.227300
     92 H37         0.6540   -1.8110    2.3500 h1        1 MOL     -0.048297
     93 H38         2.4480   -3.9640    3.2460 hc        1 MOL     -0.039146
     94 H39         1.9740   -3.5920    5.5040 hc        1 MOL     -0.001503
     95 H40         0.4980   -4.0740    4.7440 hc        1 MOL     -0.001503
     96 H41         3.3350   -1.7690    2.3880 hc        1 MOL      0.043895
     97 H42         2.3100   -0.9730    3.6500 hc        1 MOL      0.043895
     98 H43         3.6640   -2.0300    4.1130 hc        1 MOL      0.043895
     99 H44         0.2450   -2.3220    6.4030 hc        1 MOL     -0.004665
    100 H45         1.1990   -1.1740    5.3750 hc        1 MOL     -0.004665
    101 H46        -0.3470   -1.9430    4.8110 hc        1 MOL     -0.004665
    102 N10         1.7880   -1.8850    0.1490 n         1 MOL     -0.223153
    103 C32         2.5900   -1.8560   -1.0480 c3        1 MOL      0.083563
    104 C33         4.1060   -1.4390   -0.7560 c         1 MOL      0.428459
    105 O16         4.3840   -1.0310    0.3680 o         1 MOL     -0.292901
    106 C34         1.9660   -0.9070   -2.0570 c3        1 MOL     -0.233816
    107 C35         0.5050   -1.1940   -2.5400 c         1 MOL      0.657034
    108 O17         0.2700   -1.5000   -3.7660 o         1 MOL     -0.629761
    109 O18        -0.3850   -1.1870   -1.6470 o         1 MOL     -0.629761
    110 H47         1.3690   -1.0460    0.5150 hn        1 MOL      0.340828
    111 H48         2.5570   -2.8200   -1.5400 h1        1 MOL      0.067884
    112 H49         2.5330   -0.9750   -2.9860 hc        1 MOL      0.033257
    113 H50         1.9830    0.0970   -1.6400 hc        1 MOL      0.033257
    114 N11         5.0860   -1.6600   -1.6900 n         1 MOL     -0.679459
    115 C36         6.4930   -1.2110   -1.5250 c3        1 MOL      0.254725
    116 C37         6.6270    0.2770   -1.1050 c         1 MOL      0.307772
    117 O19         7.3260    0.5530   -0.1320 o         1 MOL     -0.500463
    118 C38         7.3810   -1.5050   -2.7600 c3        1 MOL     -0.043557
    119 C39         8.7970   -1.7750   -2.5350 ca        1 MOL      0.146994
    120 C40         9.7840   -1.1770   -3.3130 ca        1 MOL     -0.256983
    121 C41         9.2970   -2.5150   -1.4450 ca        1 MOL     -0.256983
    122 C42        11.1560   -1.2090   -2.9500 ca        1 MOL      0.013420
    123 C43        10.6500   -2.5410   -1.0670 ca        1 MOL      0.013420
    124 C44        11.6200   -1.9290   -1.8870 ca        1 MOL     -0.231164
    125 H51         4.8250   -2.0380   -2.5970 hn        1 MOL      0.359896
    126 H52         6.9240   -1.7500   -0.6870 h1        1 MOL      0.080213
    127 H53         7.2590   -0.6700   -3.4460 hc        1 MOL      0.032473
    128 H54         6.9380   -2.2770   -3.3930 hc        1 MOL      0.032473
    129 H55         9.4890   -0.6010   -4.1860 ha        1 MOL      0.117920
    130 H56         8.5530   -3.0980   -0.9280 ha        1 MOL      0.117920
    131 H57        11.8760   -0.7480   -3.6000 ha        1 MOL      0.080267
    132 H58        10.9300   -3.1250   -0.1950 ha        1 MOL      0.080267
    133 H59        12.6660   -1.9030   -1.5840 ha        1 MOL      0.129376
    134 N12         5.9500    1.2660   -1.7770 n         1 MOL     -0.055366
    135 C45         6.1360    2.6750   -1.4060 c3        1 MOL     -0.037189
    136 C46         5.4980    3.0080   -0.0030 c         1 MOL      0.330268
    137 O20         5.7070    4.0930    0.5840 o         1 MOL     -0.518025
    138 C47         5.4390    3.4650   -2.5180 c3        1 MOL     -0.126752
    139 C48         4.3790    2.5090   -3.0730 c3        1 MOL     -0.010834
    140 C49         5.1680    1.1300   -2.9650 c3        1 MOL     -0.053590
    141 H60         7.2080    2.8690   -1.3770 h1        1 MOL      0.092099
    142 H61         4.9920    4.3870   -2.1510 hc        1 MOL      0.058260
    143 H62         6.1800    3.7810   -3.2610 hc        1 MOL      0.058260
    144 H63         3.5310    2.5190   -2.3780 hc        1 MOL      0.041871
    145 H64         4.0940    2.6460   -4.1050 hc        1 MOL      0.041871
    146 H65         4.4920    0.2770   -3.0080 h1        1 MOL      0.034791
    147 H66         5.8150    1.0190   -3.8400 h1        1 MOL      0.034791
    148 N13         4.7840    1.9980    0.5200 n         1 MOL      0.008111
    149 C50         4.1850    2.1010    1.8720 c3        1 MOL     -0.080762
    150 C51         5.0930    1.3910    3.0190 c         1 MOL      0.442080
    151 O21         5.2770    1.9340    4.0760 o         1 MOL     -0.527228
    152 C52         2.6850    1.5910    1.7200 c3        1 MOL      0.097592
    153 C53         1.9000    2.0600    0.5650 c3        1 MOL     -0.354122
    154 C54         0.4680    1.4730    0.6770 c         1 MOL      0.506646
    155 O22        -0.3840    1.9740   -0.0920 o         1 MOL     -0.610715
    156 O23         0.1110    0.4470    1.3720 o         1 MOL     -0.610715
    157 H67         4.6740    1.1580   -0.0110 hn        1 MOL      0.074459
    158 H68         4.1370    3.1640    2.1010 h1        1 MOL      0.085894
    159 H69         2.1780    1.9400    2.6160 hc        1 MOL      0.007939
    160 H70         2.7470    0.4990    1.7650 hc        1 MOL      0.007939
    161 H71         2.2580    1.7240   -0.4050 hc        1 MOL      0.150655
    162 H72         1.9460    3.1460    0.5640 hc        1 MOL      0.150655
    163 N14         5.6850    0.2270    2.6390 n         1 MOL     -0.067637
    164 C55         6.7370   -0.4150    3.3780 c3        1 MOL     -0.267272
    165 H73         6.6290   -0.1830    4.4380 h1        1 MOL      0.092868
    166 H74         6.6760   -1.4930    3.2350 h1        1 MOL      0.092868
    167 H75         7.7020   -0.0540    3.0240 h1        1 MOL      0.092868
    168 H76         5.4930   -0.0670    1.6860 hn        1 MOL      0.078266
    169 Ca1        -2.0650   -0.1250   -0.1490 Ca        1 MOL      1.648258
    170 O24        -4.0530   -0.9640    1.4570 oh        1 MOL     -0.723057
    171 H77        -3.4190   -0.8950    2.1790 ho        1 MOL      0.375014
    172 H78        -4.8640   -0.6120    1.8260 ho        1 MOL      0.375014
    173 O25        -2.0590    0.0440    2.8120 oh        1 MOL     -0.723057
    174 H79        -2.1640    0.3370    3.7140 ho        1 MOL      0.375014
    175 H80        -1.2190    0.4160    2.5330 ho        1 MOL      0.375014
@<TRIPOS>BOND
     1    1    2 1   
     2    1    4 1   
     3    1    5 1   
     4    1    6 1   
     5    2    3 2   
     6    2    7 1   
     7    7    8 1   
     8    7   15 1   
     9    8    9 1   
    10    8   11 1   
    11    8   16 1   
    12    9   10 2   
    13    9   19 1   
    14   11   12 1   
    15   11   17 1   
    16   11   18 1   
    17   12   13 1   
    18   12   14 1   
    19   19   20 1   
    20   19   24 1   
    21   20   21 1   
    22   20   23 1   
    23   20   25 1   
    24   21   22 2   
    25   21   29 1   
    26   23   26 1   
    27   23   27 1   
    28   23   28 1   
    29   29   30 1   
    30   29   37 1   
    31   30   31 1   
    32   30   33 1   
    33   30   38 1   
    34   31   32 2   
    35   31   41 1   
    36   33   34 1   
    37   33   39 1   
    38   33   40 1   
    39   34   35 1   
    40   34   36 1   
    41   41   42 1   
    42   41   45 1   
    43   42   43 1   
    44   42   46 1   
    45   42   47 1   
    46   43   44 2   
    47   43   48 1   
    48   48   49 1   
    49   48   56 1   
    50   49   50 1   
    51   49   52 1   
    52   49   57 1   
    53   50   51 2   
    54   50   62 1   
    55   52   53 1   
    56   52   58 1   
    57   52   59 1   
    58   53   54 1   
    59   53   55 2   
    60   54   60 1   
    61   54   61 1   
    62   62   63 1   
    63   62   66 1   
    64   63   64 1   
    65   63   67 1   
    66   63   68 1   
    67   64   65 2   
    68   64   69 1   
    69   69   70 1   
    70   69   76 1   
    71   70   71 1   
    72   70   73 1   
    73   70   77 1   
    74   71   72 2   
    75   71   83 1   
    76   73   74 1   
    77   73   75 1   
    78   73   78 1   
    79   74   80 1   
    80   74   81 1   
    81   74   82 1   
    82   75   79 1   
    83   83   84 1   
    84   83   91 1   
    85   84   85 1   
    86   84   87 1   
    87   84   92 1   
    88   85   86 2   
    89   85  102 1   
    90   87   88 1   
    91   87   89 1   
    92   87   93 1   
    93   88   90 1   
    94   88   94 1   
    95   88   95 1   
    96   89   96 1   
    97   89   97 1   
    98   89   98 1   
    99   90   99 1   
   100   90  100 1   
   101   90  101 1   
   102  102  103 1   
   103  102  110 1   
   104  103  104 1   
   105  103  106 1   
   106  103  111 1   
   107  104  105 2   
   108  104  114 1   
   109  106  107 1   
   110  106  112 1   
   111  106  113 1   
   112  107  108 1   
   113  107  109 1   
   114  114  115 1   
   115  114  125 1   
   116  115  116 1   
   117  115  118 1   
   118  115  126 1   
   119  116  117 2   
   120  116  134 1   
   121  118  119 1   
   122  118  127 1   
   123  118  128 1   
   124  119  120 ar  
   125  119  121 ar  
   126  120  122 ar  
   127  120  129 1   
   128  121  123 ar  
   129  121  130 1   
   130  122  124 ar  
   131  122  131 1   
   132  123  124 ar  
   133  123  132 1   
   134  124  133 1   
   135  134  135 1   
   136  134  140 1   
   137  135  136 1   
   138  135  138 1   
   139  135  141 1   
   140  136  137 2   
   141  136  148 1   
   142  138  139 1   
   143  138  142 1   
   144  138  143 1   
   145  139  140 1   
   146  139  144 1   
   147  139  145 1   
   148  140  146 1   
   149  140  147 1   
   150  148  149 1   
   151  148  157 1   
   152  149  150 1   
   153  149  152 1   
   154  149  158 1   
   155  150  151 2   
   156  150  163 1   
   157  152  153 1   
   158  152  159 1   
   159  152  160 1   
   160  153  154 1   
   161  153  161 1   
   162  153  162 1   
   163  154  155 1   
   164  154  156 1   
   165  163  164 1   
   166  163  168 1   
   167  164  165 1   
   168  164  166 1   
   169  164  167 1   
   170  170  171 1   
   171  170  172 1   
   172  173  174 1   
   173  173  175 1   
@<TRIPOS>SUBSTRUCTURE
     1 MOL         1 TEMP              0 ****  ****    0 ROOT
