@<TRIPOS>MOLECULE
MOL
  189   185     1     0     0
SMALL
resp


@<TRIPOS>ATOM
      1 C1          0.2460    2.5050    5.5810 c3        1 MOL     -0.392471
      2 C2         -0.1640    2.4470    4.1450 c         1 MOL      0.702291
      3 O1          0.6460    2.8700    3.3240 o         1 MOL     -0.654094
      4 H1          1.2790    2.1710    5.6780 hc        1 MOL      0.101732
      5 H2          0.1610    3.5300    5.9430 hc        1 MOL      0.101732
      6 H3         -0.4010    1.8560    6.1710 hc        1 MOL      0.101732
      7 N1         -1.3610    1.9400    3.8430 n         1 MOL     -0.545631
      8 C3         -1.9220    1.5720    2.4980 c3        1 MOL      0.164559
      9 C4         -2.7150    2.7060    1.7630 c         1 MOL      0.326797
     10 O2         -3.8100    3.0690    2.0550 o         1 MOL     -0.470890
     11 C5         -2.8750    0.4090    2.7150 c3        1 MOL     -0.283671
     12 C6         -3.6690    0.1290    1.5250 c         1 MOL      0.718321
     13 O3         -3.1890    0.2870    0.3620 o         1 MOL     -0.649794
     14 O4         -4.8280   -0.3650    1.6690 o         1 MOL     -0.649794
     15 H4         -2.0000    1.7550    4.6040 hn        1 MOL      0.310210
     16 H5         -1.1040    1.2290    1.8620 h1        1 MOL      0.056666
     17 H6         -3.6060    0.6130    3.5050 hc        1 MOL      0.077059
     18 H7         -2.3500   -0.5190    2.9270 hc        1 MOL      0.077059
     19 N2         -2.0210    3.3100    0.8320 n         1 MOL     -0.143589
     20 C7         -2.2910    4.7200    0.3410 c3        1 MOL      0.119884
     21 C8         -3.3350    4.8500   -0.7880 c         1 MOL      0.409517
     22 O5         -3.9350    5.9320   -0.8400 o         1 MOL     -0.588638
     23 C9         -1.0080    5.5610    0.0850 c3        1 MOL     -0.350099
     24 C10        -0.1370    5.8130    1.3660 c3        1 MOL      0.273407
     25 C11        -0.6520    6.9370    2.2810 c3        1 MOL     -0.062981
     26 C12         0.3950    7.5550    3.1170 c3        1 MOL     -0.065178
     27 N3          1.0570    6.5990    4.0120 n4        1 MOL     -0.302620
     28 H8         -1.3200    2.7790    0.3450 hn        1 MOL      0.182586
     29 H9         -2.7810    5.1520    1.2100 h1        1 MOL      0.026045
     30 H10        -1.1520    6.5030   -0.4420 hc        1 MOL      0.099605
     31 H11        -0.5470    4.8730   -0.6300 hc        1 MOL      0.099605
     32 H12         0.8280    6.1670    1.0060 hc        1 MOL     -0.040615
     33 H13         0.0770    4.8880    1.9020 hc        1 MOL     -0.040615
     34 H14        -1.3910    6.5240    2.9670 hc        1 MOL      0.057662
     35 H15        -1.1510    7.6930    1.6830 hc        1 MOL      0.057662
     36 H16        -0.0560    8.2880    3.7920 hx        1 MOL      0.095261
     37 H17         1.1500    8.0740    2.5210 hx        1 MOL      0.095261
     38 H18         1.3660    5.7620    3.5480 hn        1 MOL      0.313238
     39 H19         1.8740    7.0330    4.4400 hn        1 MOL      0.313238
     40 H20         0.4960    6.3600    4.8210 hn        1 MOL      0.313238
     41 N4         -3.4740    3.8350   -1.5450 n         1 MOL     -0.193528
     42 C13        -4.5750    3.6850   -2.5210 c3        1 MOL      0.157593
     43 C14        -5.7610    2.8470   -1.9730 c         1 MOL      0.326060
     44 O6         -6.8080    2.8380   -2.6240 o         1 MOL     -0.505904
     45 C15        -4.0240    3.1500   -3.8310 c3        1 MOL     -0.422115
     46 C16        -2.9060    2.2200   -3.6470 c         1 MOL      0.796008
     47 O7         -3.0470    1.3550   -2.7610 o         1 MOL     -0.715748
     48 O8         -1.8600    2.2970   -4.3880 o         1 MOL     -0.715748
     49 H21        -2.8960    3.0610   -1.2600 hn        1 MOL      0.179102
     50 H22        -4.9800    4.6670   -2.7860 h1        1 MOL      0.095793
     51 H23        -3.5580    3.9650   -4.3940 hc        1 MOL      0.109726
     52 H24        -4.7140    2.5540   -4.4340 hc        1 MOL      0.109726
     53 N5         -5.6460    2.2220   -0.7450 n         1 MOL     -0.037520
     54 C17        -6.8070    1.7580   -0.0060 c3        1 MOL     -0.259939
     55 C18        -7.3450    0.3790   -0.5180 c         1 MOL      0.578987
     56 O9         -8.5050    0.2160   -0.2830 o         1 MOL     -0.571547
     57 H25        -4.7520    2.1540   -0.2930 hn        1 MOL      0.009992
     58 H26        -7.5980    2.4770   -0.2150 h1        1 MOL      0.126192
     59 H27        -6.5660    1.8080    1.0500 h1        1 MOL      0.126192
     60 N6         -6.5800   -0.3550   -1.3020 n         1 MOL     -0.208924
     61 C19        -6.9590   -1.7030   -1.7210 c3        1 MOL     -0.072309
     62 C20        -6.8770   -2.8170   -0.6670 c         1 MOL      0.360766
     63 O10        -7.4210   -3.9340   -0.8740 o         1 MOL     -0.531539
     64 C21        -5.9620   -2.0100   -2.8930 c3        1 MOL     -0.220113
     65 C22        -4.4990   -2.0550   -2.5950 c         1 MOL      0.888488
     66 O11        -4.0780   -2.4570   -1.4990 o         1 MOL     -0.777783
     67 O12        -3.7240   -1.6300   -3.4240 o         1 MOL     -0.777783
     68 H28        -5.5960   -0.1680   -1.1720 hn        1 MOL      0.148933
     69 H29        -7.9330   -1.6070   -2.1910 h1        1 MOL      0.134995
     70 H30        -6.1580   -1.1980   -3.5890 hc        1 MOL      0.065184
     71 H31        -6.2490   -2.9670   -3.3270 hc        1 MOL      0.065184
     72 N7         -6.3210   -2.6030    0.5330 n         1 MOL     -0.057599
     73 C23        -6.3170   -3.5770    1.6110 c3        1 MOL     -0.370378
     74 C24        -5.0720   -4.3690    1.6780 c         1 MOL      0.641873
     75 O13        -5.0500   -5.3890    2.3540 o         1 MOL     -0.575097
     76 H32        -5.8490   -1.7460    0.7640 hn        1 MOL      0.174842
     77 H33        -7.1460   -4.2540    1.4120 h1        1 MOL      0.139905
     78 H34        -6.2700   -3.1360    2.6060 h1        1 MOL      0.139905
     79 N8         -4.0470   -3.8410    0.9420 n         1 MOL     -0.127717
     80 C25        -2.6950   -4.3520    0.9850 c3        1 MOL     -0.686332
     81 C26        -1.5980   -3.1880    1.1750 c         1 MOL      1.068847
     82 O14        -1.7490   -2.1720    0.5200 o         1 MOL     -0.790624
     83 C27        -2.3490   -5.3730   -0.1830 c3        1 MOL      0.663749
     84 C28        -3.0760   -6.6540   -0.2320 c3        1 MOL     -0.459353
     85 O15        -2.4680   -4.7900   -1.4290 oh        1 MOL     -0.674641
     86 H35        -4.1850   -2.9720    0.4410 hn        1 MOL      0.210708
     87 H36        -2.6880   -4.9900    1.8720 h1        1 MOL      0.133212
     88 H37        -1.3190   -5.7110   -0.0780 h1        1 MOL     -0.028491
     89 H38        -3.2100   -4.1750   -1.4080 ho        1 MOL      0.419210
     90 H39        -3.9450   -6.5250   -0.8730 hc        1 MOL      0.111468
     91 H40        -2.3790   -7.4140   -0.5790 hc        1 MOL      0.111468
     92 H41        -3.3960   -6.9230    0.7760 hc        1 MOL      0.111468
     93 N9         -0.5330   -3.5460    1.8640 n         1 MOL     -0.795163
     94 C29         0.7410   -2.8260    1.9360 c3        1 MOL      0.283360
     95 C30         1.7630   -3.4800    0.9440 c         1 MOL      0.367432
     96 O16         2.0540   -4.6520    1.0190 o         1 MOL     -0.508321
     97 C31         1.2900   -2.6730    3.3780 c3        1 MOL      0.192258
     98 C32         0.2320   -2.3210    4.4130 c3        1 MOL      0.149463
     99 C33         2.5060   -1.7460    3.4000 c3        1 MOL     -0.468004
    100 C34         0.5530   -2.5850    5.8380 c3        1 MOL     -0.094289
    101 H42        -0.6480   -4.3630    2.4410 hn        1 MOL      0.346611
    102 H43         0.5970   -1.8020    1.5890 h1        1 MOL      0.063553
    103 H44         1.6560   -3.6820    3.5500 hc        1 MOL     -0.043584
    104 H45        -0.6900   -2.8430    4.1310 hc        1 MOL     -0.046829
    105 H46        -0.0010   -1.2810    4.2020 hc        1 MOL     -0.046829
    106 H47         3.1830   -1.9110    2.5590 hc        1 MOL      0.078428
    107 H48         2.1660   -0.7130    3.3160 hc        1 MOL      0.078428
    108 H49         3.1780   -1.7580    4.2520 hc        1 MOL      0.078428
    109 H50         1.4200   -2.0620    6.2290 hc        1 MOL      0.017533
    110 H51        -0.2890   -2.2350    6.4340 hc        1 MOL      0.017533
    111 H52         0.7290   -3.6520    5.9890 hc        1 MOL      0.017533
    112 N10         2.3580   -2.6170    0.0400 n         1 MOL     -0.072838
    113 C35         3.6080   -2.9630   -0.6970 c3        1 MOL     -0.020069
    114 C36         4.8390   -2.6160    0.0920 c         1 MOL      0.398758
    115 O17         4.8790   -1.8240    1.0400 o         1 MOL     -0.309269
    116 C37         3.6370   -2.1880   -2.0540 c3        1 MOL     -0.060098
    117 C38         2.5280   -2.3600   -2.9980 c3        1 MOL     -0.375868
    118 O18         3.7810   -0.7900   -1.8940 oh        1 MOL     -0.392375
    119 H53         1.9950   -1.6960   -0.1550 hn        1 MOL      0.173359
    120 H54         3.4800   -4.0450   -0.7460 h1        1 MOL      0.088233
    121 H55         4.5080   -2.6060   -2.5630 h1        1 MOL      0.088444
    122 H56         3.1230   -0.4180   -2.4810 ho        1 MOL      0.365628
    123 H57         1.6910   -1.8320   -2.5530 hc        1 MOL      0.133901
    124 H58         2.7630   -2.0160   -4.0050 hc        1 MOL      0.133901
    125 H59         2.2580   -3.4120   -3.1050 hc        1 MOL      0.133901
    126 N11         6.0360   -3.0840   -0.3820 n         1 MOL     -0.338314
    127 C39         7.4020   -2.6310    0.0320 c3        1 MOL     -0.084235
    128 C40         7.5770   -1.0890   -0.1630 c         1 MOL      0.369957
    129 O19         8.3180   -0.5410    0.6210 o         1 MOL     -0.493491
    130 C41         8.4650   -3.3170   -0.8570 c3        1 MOL      0.276948
    131 C42         8.7730   -4.8080   -0.4230 c3        1 MOL     -0.420674
    132 O20         8.1250   -3.2670   -2.2490 oh        1 MOL     -0.654559
    133 H60         6.0960   -3.7020   -1.1800 hn        1 MOL      0.274793
    134 H61         7.7290   -2.8970    1.0320 h1        1 MOL      0.139714
    135 H62         9.4400   -2.8200   -0.7910 h1        1 MOL      0.055259
    136 H63         8.8230   -3.7730   -2.6940 ho        1 MOL      0.428042
    137 H64         9.5910   -5.0840   -1.1000 hc        1 MOL      0.120191
    138 H65         9.0390   -4.8900    0.6240 hc        1 MOL      0.120191
    139 H66         7.8840   -5.3820   -0.6560 hc        1 MOL      0.120191
    140 N12         6.9010   -0.3850   -1.0870 n         1 MOL     -0.170510
    141 C43         6.8500    1.1180   -1.2120 c3        1 MOL     -0.197689
    142 C44         5.9090    1.7730   -0.1340 c         1 MOL      0.495876
    143 O21         6.0220    2.9070    0.2090 o         1 MOL     -0.551001
    144 C45         6.4560    1.5330   -2.6300 c3        1 MOL     -0.060115
    145 C46         6.6860    3.0550   -2.9470 c3        1 MOL      0.118782
    146 C47         6.2210    3.4740   -4.2950 c3        1 MOL     -0.015529
    147 C48         6.8490    2.6910   -5.3910 c3        1 MOL     -0.018476
    148 N13         5.9580    2.5780   -6.5560 n4        1 MOL     -0.342078
    149 H67         6.3990   -0.9960   -1.7200 hn        1 MOL      0.190468
    150 H68         7.8540    1.4530   -0.9740 h1        1 MOL      0.145937
    151 H69         5.4160    1.2530   -2.7660 hc        1 MOL      0.011478
    152 H70         7.0700    1.0480   -3.3860 hc        1 MOL      0.011478
    153 H71         7.7480    3.2820   -2.8540 hc        1 MOL      0.006923
    154 H72         6.1820    3.6430   -2.1880 hc        1 MOL      0.006923
    155 H73         6.5190    4.5210   -4.4090 hc        1 MOL      0.027110
    156 H74         5.1340    3.4420   -4.2980 hc        1 MOL      0.027110
    157 H75         7.1160    1.6960   -5.0380 hx        1 MOL      0.104924
    158 H76         7.8140    3.1340   -5.6140 hx        1 MOL      0.104924
    159 H77         6.4010    2.2760   -7.3990 hn        1 MOL      0.326021
    160 H78         5.1140    2.0230   -6.4240 hn        1 MOL      0.326021
    161 H79         5.4590    3.4280   -6.7520 hn        1 MOL      0.326021
    162 N14         4.9690    1.0280    0.4380 n         1 MOL      0.079347
    163 C49         4.0120    1.5640    1.3920 c3        1 MOL      0.019435
    164 C50         4.5370    1.3920    2.7910 c         1 MOL      0.418603
    165 O22         4.5600    2.4050    3.4740 o         1 MOL     -0.547668
    166 C51         2.6980    0.8570    1.1180 c3        1 MOL      0.097105
    167 C52         1.9600    1.5780   -0.0130 c3        1 MOL     -0.591470
    168 C53         0.7170    0.9200   -0.5320 c         1 MOL      0.880389
    169 O23        -0.3380    1.6010   -0.6080 o         1 MOL     -0.727804
    170 O24         0.6220   -0.2990   -0.6910 o         1 MOL     -0.727804
    171 H80         4.9700    0.0350    0.2390 hn        1 MOL     -0.173951
    172 H81         3.8660    2.6440    1.3220 h1        1 MOL      0.068499
    173 H82         2.1170    1.0110    2.0300 hc        1 MOL      0.081315
    174 H83         2.8020   -0.2020    0.9280 hc        1 MOL      0.081315
    175 H84         2.6620    1.5310   -0.8530 hc        1 MOL      0.117532
    176 H85         1.7270    2.5830    0.3390 hc        1 MOL      0.117532
    177 N15         5.0590    0.1900    3.1750 n         1 MOL     -0.147438
    178 C54         5.9040    0.0230    4.3830 c3        1 MOL     -0.290690
    179 H86         6.9390   -0.1410    4.0820 h1        1 MOL      0.112994
    180 H87         5.8430    0.9220    4.9960 h1        1 MOL      0.112994
    181 H88         5.5520   -0.8340    4.9580 h1        1 MOL      0.112994
    182 H89         5.0410   -0.5880    2.5310 hn        1 MOL      0.205156
    183 Ca1        -1.8880   -0.6220   -1.5130 Ca        1 MOL      1.733824
    184 O25        -0.7160   -0.0270   -3.9600 oh        1 MOL     -0.913304
    185 H90        -0.9350   -0.6120   -4.6920 ho        1 MOL      0.413525
    186 H91        -1.2220    0.7670   -4.1220 ho        1 MOL      0.413525
    187 O26        -0.6150   -2.9680   -2.1260 oh        1 MOL     -0.913304
    188 H92        -1.0920   -3.5990   -1.5890 ho        1 MOL      0.413525
    189 H93        -0.4080   -3.4330   -2.9380 ho        1 MOL      0.413525
@<TRIPOS>BOND
     1    1    2 1   
     2    1    4 1   
     3    1    5 1   
     4    1    6 1   
     5    2    3 2   
     6    2    7 1   
     7    7    8 1   
     8    7   15 1   
     9    8    9 1   
    10    8   11 1   
    11    8   16 1   
    12    9   10 2   
    13    9   19 1   
    14   11   12 1   
    15   11   17 1   
    16   11   18 1   
    17   12   13 1   
    18   12   14 1   
    19   19   20 1   
    20   19   28 1   
    21   20   21 1   
    22   20   23 1   
    23   20   29 1   
    24   21   22 2   
    25   21   41 1   
    26   23   24 1   
    27   23   30 1   
    28   23   31 1   
    29   24   25 1   
    30   24   32 1   
    31   24   33 1   
    32   25   26 1   
    33   25   34 1   
    34   25   35 1   
    35   26   27 1   
    36   26   36 1   
    37   26   37 1   
    38   27   38 1   
    39   27   39 1   
    40   27   40 1   
    41   41   42 1   
    42   41   49 1   
    43   42   43 1   
    44   42   45 1   
    45   42   50 1   
    46   43   44 2   
    47   43   53 1   
    48   45   46 1   
    49   45   51 1   
    50   45   52 1   
    51   46   47 1   
    52   46   48 1   
    53   53   54 1   
    54   53   57 1   
    55   54   55 1   
    56   54   58 1   
    57   54   59 1   
    58   55   56 2   
    59   55   60 1   
    60   60   61 1   
    61   60   68 1   
    62   61   62 1   
    63   61   64 1   
    64   61   69 1   
    65   62   63 2   
    66   62   72 1   
    67   64   65 1   
    68   64   70 1   
    69   64   71 1   
    70   65   66 1   
    71   65   67 1   
    72   72   73 1   
    73   72   76 1   
    74   73   74 1   
    75   73   77 1   
    76   73   78 1   
    77   74   75 2   
    78   74   79 1   
    79   79   80 1   
    80   79   86 1   
    81   80   81 1   
    82   80   83 1   
    83   80   87 1   
    84   81   82 2   
    85   81   93 1   
    86   83   84 1   
    87   83   85 1   
    88   83   88 1   
    89   84   90 1   
    90   84   91 1   
    91   84   92 1   
    92   85   89 1   
    93   93   94 1   
    94   93  101 1   
    95   94   95 1   
    96   94   97 1   
    97   94  102 1   
    98   95   96 2   
    99   95  112 1   
   100   97   98 1   
   101   97   99 1   
   102   97  103 1   
   103   98  100 1   
   104   98  104 1   
   105   98  105 1   
   106   99  106 1   
   107   99  107 1   
   108   99  108 1   
   109  100  109 1   
   110  100  110 1   
   111  100  111 1   
   112  112  113 1   
   113  112  119 1   
   114  113  114 1   
   115  113  116 1   
   116  113  120 1   
   117  114  115 2   
   118  114  126 1   
   119  116  117 1   
   120  116  118 1   
   121  116  121 1   
   122  117  123 1   
   123  117  124 1   
   124  117  125 1   
   125  118  122 1   
   126  126  127 1   
   127  126  133 1   
   128  127  128 1   
   129  127  130 1   
   130  127  134 1   
   131  128  129 2   
   132  128  140 1   
   133  130  131 1   
   134  130  132 1   
   135  130  135 1   
   136  131  137 1   
   137  131  138 1   
   138  131  139 1   
   139  132  136 1   
   140  140  141 1   
   141  140  149 1   
   142  141  142 1   
   143  141  144 1   
   144  141  150 1   
   145  142  143 2   
   146  142  162 1   
   147  144  145 1   
   148  144  151 1   
   149  144  152 1   
   150  145  146 1   
   151  145  153 1   
   152  145  154 1   
   153  146  147 1   
   154  146  155 1   
   155  146  156 1   
   156  147  148 1   
   157  147  157 1   
   158  147  158 1   
   159  148  159 1   
   160  148  160 1   
   161  148  161 1   
   162  162  163 1   
   163  162  171 1   
   164  163  164 1   
   165  163  166 1   
   166  163  172 1   
   167  164  165 2   
   168  164  177 1   
   169  166  167 1   
   170  166  173 1   
   171  166  174 1   
   172  167  168 1   
   173  167  175 1   
   174  167  176 1   
   175  168  169 1   
   176  168  170 1   
   177  177  178 1   
   178  177  182 1   
   179  178  179 1   
   180  178  180 1   
   181  178  181 1   
   182  184  185 1   
   183  184  186 1   
   184  187  188 1   
   185  187  189 1   
@<TRIPOS>SUBSTRUCTURE
     1 MOL         1 TEMP              0 ****  ****    0 ROOT
