@<TRIPOS>MOLECULE
MOL
  189   185     1     0     0
SMALL
resp


@<TRIPOS>ATOM
      1 C1         -0.4760    3.1490   -4.5120 c3        1 MOL     -0.481659
      2 C2          0.3610    2.7720   -3.2460 c         1 MOL      0.656544
      3 O1         -0.0900    3.1010   -2.1370 o         1 MOL     -0.575313
      4 H1         -0.6330    4.2280   -4.5360 hc        1 MOL      0.121486
      5 H2          0.0610    2.8410   -5.4090 hc        1 MOL      0.121486
      6 H3         -1.4410    2.6440   -4.4750 hc        1 MOL      0.121486
      7 N1          1.5570    2.1250   -3.4040 n         1 MOL     -0.574317
      8 C3          2.3590    1.7260   -2.2250 c3        1 MOL      0.230321
      9 C4          3.1680    2.9470   -1.7930 c         1 MOL      0.415404
     10 O2          4.3850    3.0890   -2.0990 o         1 MOL     -0.457459
     11 C5          3.1500    0.4500   -2.5960 c3        1 MOL     -0.327698
     12 C6          3.8540   -0.1610   -1.3580 c         1 MOL      0.623021
     13 O3          3.4300    0.1110   -0.2400 o         1 MOL     -0.629714
     14 O4          4.8600   -0.9200   -1.5040 o         1 MOL     -0.629714
     15 H4          1.8200    1.7920   -4.3150 hn        1 MOL      0.327941
     16 H5          1.6370    1.4550   -1.4560 h1        1 MOL      0.103528
     17 H6          3.9260    0.7050   -3.3230 hc        1 MOL      0.097135
     18 H7          2.5280   -0.3730   -2.9430 hc        1 MOL      0.097135
     19 N2          2.4460    3.9120   -1.1620 n         1 MOL     -0.370982
     20 C7          3.0020    5.2190   -0.7740 c3        1 MOL     -0.184341
     21 C8          3.7390    5.1770    0.5550 c         1 MOL      0.557806
     22 O5          4.5490    6.0980    0.7490 o         1 MOL     -0.561536
     23 C9          1.7440    6.1630   -0.6490 c3        1 MOL     -0.116622
     24 C10         1.1810    6.3470   -2.1540 c3        1 MOL      0.152279
     25 C11         0.0480    7.4160   -1.9460 c3        1 MOL     -0.190786
     26 C12        -0.5580    7.5640   -3.3440 c3        1 MOL      0.139715
     27 N3         -1.9030    6.9960   -3.3720 n4        1 MOL     -0.608365
     28 H8          1.4490    3.8200   -1.0900 hn        1 MOL      0.327671
     29 H9          3.7270    5.6150   -1.4820 h1        1 MOL      0.153336
     30 H10         2.0860    7.1290   -0.2950 hc        1 MOL      0.051609
     31 H11         0.9130    5.8650   -0.0050 hc        1 MOL      0.051609
     32 H12         0.7850    5.4230   -2.5620 hc        1 MOL      0.000650
     33 H13         1.9530    6.8040   -2.7750 hc        1 MOL      0.000650
     34 H14         0.4980    8.3470   -1.6050 hc        1 MOL      0.077742
     35 H15        -0.6850    7.0090   -1.2590 hc        1 MOL      0.077742
     36 H16         0.1410    7.1360   -4.0690 hx        1 MOL      0.062626
     37 H17        -0.6130    8.5920   -3.7030 hx        1 MOL      0.062626
     38 H18        -1.9220    6.2370   -2.7050 hn        1 MOL      0.396381
     39 H19        -2.6140    7.6430   -3.0790 hn        1 MOL      0.396381
     40 H20        -1.9800    6.6830   -4.3280 hn        1 MOL      0.396381
     41 N4          3.6280    4.0890    1.3010 n         1 MOL     -0.315334
     42 C13         4.5610    3.6820    2.3580 c3        1 MOL      0.010041
     43 C14         5.7320    2.6920    1.9900 c         1 MOL      0.459925
     44 O6          6.6520    2.5210    2.7430 o         1 MOL     -0.506755
     45 C15         3.7610    3.2590    3.6200 c3        1 MOL     -0.217378
     46 C16         2.9430    1.9450    3.5250 c         1 MOL      0.835830
     47 O7          2.0960    1.7980    4.4740 o         1 MOL     -0.752775
     48 O8          3.0570    1.1710    2.5520 o         1 MOL     -0.752775
     49 H21         2.9000    3.4600    0.9700 hn        1 MOL      0.236152
     50 H22         5.0800    4.6120    2.6110 h1        1 MOL      0.092615
     51 H23         3.0240    4.0520    3.7170 hc        1 MOL      0.046206
     52 H24         4.3110    3.1440    4.5490 hc        1 MOL      0.046206
     53 N5          5.7100    2.1440    0.7330 n         1 MOL     -0.111866
     54 C17         6.8130    1.4570    0.0900 c3        1 MOL     -0.159533
     55 C18         7.2720    0.1220    0.6880 c         1 MOL      0.473847
     56 O9          8.4980   -0.2720    0.5910 o         1 MOL     -0.580006
     57 H25         4.8300    2.1290    0.2350 hn        1 MOL      0.031744
     58 H26         7.6280    2.1710   -0.0520 h1        1 MOL      0.095875
     59 H27         6.4490    1.2510   -0.9270 h1        1 MOL      0.095875
     60 N6          6.2920   -0.5140    1.2700 n         1 MOL     -0.180655
     61 C19         6.5300   -1.8280    1.8340 c3        1 MOL     -0.152406
     62 C20         6.6160   -3.0080    0.9200 c         1 MOL      0.381252
     63 O10         6.9680   -4.1100    1.3610 o         1 MOL     -0.526143
     64 C21         5.5830   -2.1460    2.9550 c3        1 MOL     -0.184912
     65 C22         4.1070   -2.2790    2.5400 c         1 MOL      0.655058
     66 O11         3.6770   -2.4620    1.3830 o         1 MOL     -0.677564
     67 O12         3.3220   -1.9720    3.5040 o         1 MOL     -0.677564
     68 H28         5.3640   -0.3020    0.9300 hn        1 MOL      0.185831
     69 H29         7.4840   -1.7240    2.3600 h1        1 MOL      0.173583
     70 H30         5.7420   -1.4200    3.7470 hc        1 MOL      0.085815
     71 H31         5.9120   -3.0150    3.5320 hc        1 MOL      0.085815
     72 N7          6.4520   -2.8840   -0.4360 n         1 MOL     -0.132484
     73 C23         6.4910   -3.9090   -1.4790 c3        1 MOL     -0.264999
     74 C24         5.0660   -4.4970   -1.7960 c         1 MOL      0.595111
     75 O13         4.9120   -5.5190   -2.4840 o         1 MOL     -0.599364
     76 H32         6.1390   -1.9620   -0.7020 hn        1 MOL      0.216400
     77 H33         7.1350   -4.6920   -1.0740 h1        1 MOL      0.124340
     78 H34         6.8630   -3.4740   -2.3960 h1        1 MOL      0.124340
     79 N8          4.0250   -3.8990   -1.2740 n         1 MOL     -0.260091
     80 C25         2.6090   -4.4050   -1.2830 c3        1 MOL     -0.376411
     81 C26         1.5280   -3.4100   -1.2300 c         1 MOL      1.033745
     82 O14         1.5030   -2.3890   -0.5910 o         1 MOL     -0.716522
     83 C27         2.4140   -5.3880   -0.1790 c3        1 MOL      0.668979
     84 C28         2.7660   -6.8210   -0.4960 c3        1 MOL     -0.510732
     85 O15         3.0660   -4.9700    1.0030 oh        1 MOL     -0.749962
     86 H35         4.1470   -3.0530   -0.7440 hn        1 MOL      0.178268
     87 H36         2.5020   -4.9960   -2.1910 h1        1 MOL      0.109287
     88 H37         1.3430   -5.4090    0.0250 h1        1 MOL     -0.119290
     89 H38         3.2880   -4.0420    1.0050 ho        1 MOL      0.556801
     90 H39         2.5730   -7.5300    0.3170 hc        1 MOL      0.125842
     91 H40         2.2610   -7.1730   -1.3840 hc        1 MOL      0.125842
     92 H41         3.8260   -6.9290   -0.7060 hc        1 MOL      0.125842
     93 N9          0.3810   -3.7650   -1.8950 n         1 MOL     -0.839595
     94 C29        -0.7620   -2.9090   -2.1300 c3        1 MOL      0.086972
     95 C30        -2.0060   -3.4960   -1.3970 c         1 MOL      0.577156
     96 O16        -2.5070   -4.5670   -1.7920 o         1 MOL     -0.560499
     97 C31        -0.9460   -2.6860   -3.6640 c3        1 MOL      0.033215
     98 C32         0.2660   -1.9190   -4.2550 c3        1 MOL      0.322526
     99 C33        -2.2130   -1.8040   -3.8380 c3        1 MOL     -0.366930
    100 C34         0.0920   -1.5570   -5.7680 c3        1 MOL     -0.228580
    101 H42         0.3460   -4.7480   -2.1350 hn        1 MOL      0.348530
    102 H43        -0.6890   -1.8630   -1.8290 h1        1 MOL      0.113650
    103 H44        -1.0390   -3.6350   -4.1810 hc        1 MOL      0.039896
    104 H45         1.1990   -2.4540   -4.0880 hc        1 MOL     -0.067994
    105 H46         0.4410   -0.9930   -3.6990 hc        1 MOL     -0.067994
    106 H47        -2.5160   -1.8100   -4.8870 hc        1 MOL      0.077951
    107 H48        -3.0370   -2.3560   -3.3700 hc        1 MOL      0.077951
    108 H49        -2.1300   -0.8050   -3.4110 hc        1 MOL      0.077951
    109 H50         0.9420   -0.9560   -6.0910 hc        1 MOL      0.043317
    110 H51         0.1190   -2.5530   -6.2130 hc        1 MOL      0.043317
    111 H52        -0.8680   -1.0630   -5.9670 hc        1 MOL      0.043317
    112 N10        -2.4930   -2.7890   -0.3680 n         1 MOL     -0.263967
    113 C35        -3.7750   -3.0820    0.3530 c3        1 MOL     -0.141613
    114 C36        -5.0830   -2.6240   -0.3650 c         1 MOL      0.409358
    115 O17        -5.1980   -1.6700   -1.1850 o         1 MOL     -0.313687
    116 C37        -3.8280   -2.4100    1.7530 c3        1 MOL      0.143774
    117 C38        -2.9740   -3.0830    2.7920 c3        1 MOL     -0.227381
    118 O18        -3.3170   -1.0830    1.7560 oh        1 MOL     -0.630693
    119 H53        -1.9410   -1.9630   -0.1840 hn        1 MOL      0.224724
    120 H54        -3.7570   -4.1680    0.4750 h1        1 MOL      0.124462
    121 H55        -4.8610   -2.3580    2.0690 h1        1 MOL      0.131804
    122 H56        -2.4090   -1.0750    1.4450 ho        1 MOL      0.437294
    123 H57        -1.9560   -3.1590    2.3970 hc        1 MOL      0.070342
    124 H58        -3.1150   -2.6230    3.7730 hc        1 MOL      0.070342
    125 H59        -3.4240   -4.0510    3.0120 hc        1 MOL      0.070342
    126 N11        -6.2420   -3.2660   -0.0030 n         1 MOL     -0.421281
    127 C39        -7.5590   -2.7350   -0.2090 c3        1 MOL     -0.022306
    128 C40        -7.6770   -1.2240    0.0870 c         1 MOL      0.217731
    129 O19        -8.4740   -0.5020   -0.5880 o         1 MOL     -0.445181
    130 C41        -8.5720   -3.3900    0.5890 c3        1 MOL      0.314731
    131 C42        -8.8400   -4.7230   -0.0960 c3        1 MOL     -0.463625
    132 O20        -8.2650   -3.6100    1.9310 oh        1 MOL     -0.612821
    133 H60        -6.1340   -4.1070    0.5540 hn        1 MOL      0.314175
    134 H61        -7.9150   -2.7390   -1.2350 h1        1 MOL      0.128977
    135 H62        -9.4330   -2.7230    0.5060 h1        1 MOL      0.043900
    136 H63        -9.1280   -3.7950    2.3120 ho        1 MOL      0.409005
    137 H64        -8.1370   -5.4210    0.3650 hc        1 MOL      0.128090
    138 H65        -9.8520   -5.0540    0.1330 hc        1 MOL      0.128090
    139 H66        -8.9030   -4.5770   -1.1770 hc        1 MOL      0.128090
    140 N12        -6.9800   -0.6950    1.1380 n         1 MOL     -0.084913
    141 C43        -7.0120    0.6920    1.4650 c3        1 MOL     -0.070248
    142 C44        -6.2660    1.5830    0.4470 c         1 MOL      0.225486
    143 O21        -6.8160    2.6270    0.0170 o         1 MOL     -0.459038
    144 C45        -6.4400    0.8800    2.8250 c3        1 MOL     -0.084917
    145 C46        -6.3620    2.2630    3.4670 c3        1 MOL      0.082004
    146 C47        -5.8610    2.2660    4.9230 c3        1 MOL     -0.042652
    147 C48        -5.9350    3.6750    5.6130 c3        1 MOL     -0.055506
    148 N13        -4.8650    4.5040    5.0330 n4        1 MOL     -0.335129
    149 H67        -6.4900   -1.3110    1.7660 hn        1 MOL      0.140842
    150 H68        -8.0440    1.0380    1.4030 h1        1 MOL      0.119528
    151 H69        -5.4010    0.5540    2.8640 hc        1 MOL      0.048546
    152 H70        -6.9800    0.1630    3.4450 hc        1 MOL      0.048546
    153 H71        -7.2970    2.8190    3.5020 hc        1 MOL     -0.006549
    154 H72        -5.6410    2.8440    2.8920 hc        1 MOL     -0.006549
    155 H73        -4.8920    1.7770    5.0670 hc        1 MOL      0.049876
    156 H74        -6.5650    1.6780    5.5140 hc        1 MOL      0.049876
    157 H75        -5.7150    3.6000    6.6810 hx        1 MOL      0.120731
    158 H76        -6.9140    4.1140    5.4160 hx        1 MOL      0.120731
    159 H77        -4.7860    5.3820    5.5330 hn        1 MOL      0.327171
    160 H78        -4.0020    3.9930    5.1410 hn        1 MOL      0.327171
    161 H79        -5.0290    4.6800    4.0510 hn        1 MOL      0.327171
    162 N14        -5.0200    1.1480    0.0750 n         1 MOL      0.166366
    163 C49        -4.1570    1.9580   -0.8290 c3        1 MOL     -0.223515
    164 C50        -4.7560    2.0310   -2.2350 c         1 MOL      0.309301
    165 O22        -4.9760    3.1270   -2.8570 o         1 MOL     -0.555337
    166 C51        -2.7590    1.2810   -0.8580 c3        1 MOL      0.141188
    167 C52        -2.0380    1.5260    0.4310 c3        1 MOL     -0.048892
    168 C53        -0.7890    0.5910    0.5460 c         1 MOL      0.687721
    169 O23        -0.9290   -0.6470    0.7850 o         1 MOL     -0.751333
    170 O24         0.3140    1.1740    0.5150 o         1 MOL     -0.751333
    171 H80        -4.6510    0.3040    0.4780 hn        1 MOL      0.022081
    172 H81        -3.9940    2.9970   -0.5490 h1        1 MOL      0.081407
    173 H82        -2.1300    1.6520   -1.6720 hc        1 MOL      0.000397
    174 H83        -2.9140    0.2240   -1.0460 hc        1 MOL      0.000397
    175 H84        -2.6780    1.5000    1.3180 hc        1 MOL     -0.018490
    176 H85        -1.7140    2.5620    0.3880 hc        1 MOL     -0.018490
    177 N15        -5.3310    0.8810   -2.6060 n         1 MOL      0.160841
    178 C54        -6.1040    0.8210   -3.8210 c3        1 MOL     -0.349803
    179 H86        -6.8090    1.6520   -3.8430 h1        1 MOL      0.121026
    180 H87        -5.4370    0.8860   -4.6800 h1        1 MOL      0.121026
    181 H88        -6.6530   -0.1200   -3.8570 h1        1 MOL      0.121026
    182 H89        -5.0040    0.0800   -2.0830 hn        1 MOL     -0.001525
    183 Ca1         1.7130   -0.8310    1.5200 Ca        1 MOL      1.793692
    184 O25         0.9210   -3.3430    2.2690 oh        1 MOL     -0.867435
    185 H90         0.5350   -4.1330    1.9050 ho        1 MOL      0.403744
    186 H91         0.9070   -3.4740    3.2110 ho        1 MOL      0.403744
    187 O26         0.1520   -0.0460    3.7620 oh        1 MOL     -0.867435
    188 H92         0.6180    0.6660    4.2000 ho        1 MOL      0.403744
    189 H93        -0.7720    0.1240    3.9570 ho        1 MOL      0.403744
@<TRIPOS>BOND
     1    1    2 1   
     2    1    4 1   
     3    1    5 1   
     4    1    6 1   
     5    2    3 2   
     6    2    7 1   
     7    7    8 1   
     8    7   15 1   
     9    8    9 1   
    10    8   11 1   
    11    8   16 1   
    12    9   10 2   
    13    9   19 1   
    14   11   12 1   
    15   11   17 1   
    16   11   18 1   
    17   12   13 1   
    18   12   14 1   
    19   19   20 1   
    20   19   28 1   
    21   20   21 1   
    22   20   23 1   
    23   20   29 1   
    24   21   22 2   
    25   21   41 1   
    26   23   24 1   
    27   23   30 1   
    28   23   31 1   
    29   24   25 1   
    30   24   32 1   
    31   24   33 1   
    32   25   26 1   
    33   25   34 1   
    34   25   35 1   
    35   26   27 1   
    36   26   36 1   
    37   26   37 1   
    38   27   38 1   
    39   27   39 1   
    40   27   40 1   
    41   41   42 1   
    42   41   49 1   
    43   42   43 1   
    44   42   45 1   
    45   42   50 1   
    46   43   44 2   
    47   43   53 1   
    48   45   46 1   
    49   45   51 1   
    50   45   52 1   
    51   46   47 1   
    52   46   48 1   
    53   53   54 1   
    54   53   57 1   
    55   54   55 1   
    56   54   58 1   
    57   54   59 1   
    58   55   56 2   
    59   55   60 1   
    60   60   61 1   
    61   60   68 1   
    62   61   62 1   
    63   61   64 1   
    64   61   69 1   
    65   62   63 2   
    66   62   72 1   
    67   64   65 1   
    68   64   70 1   
    69   64   71 1   
    70   65   66 1   
    71   65   67 1   
    72   72   73 1   
    73   72   76 1   
    74   73   74 1   
    75   73   77 1   
    76   73   78 1   
    77   74   75 2   
    78   74   79 1   
    79   79   80 1   
    80   79   86 1   
    81   80   81 1   
    82   80   83 1   
    83   80   87 1   
    84   81   82 2   
    85   81   93 1   
    86   83   84 1   
    87   83   85 1   
    88   83   88 1   
    89   84   90 1   
    90   84   91 1   
    91   84   92 1   
    92   85   89 1   
    93   93   94 1   
    94   93  101 1   
    95   94   95 1   
    96   94   97 1   
    97   94  102 1   
    98   95   96 2   
    99   95  112 1   
   100   97   98 1   
   101   97   99 1   
   102   97  103 1   
   103   98  100 1   
   104   98  104 1   
   105   98  105 1   
   106   99  106 1   
   107   99  107 1   
   108   99  108 1   
   109  100  109 1   
   110  100  110 1   
   111  100  111 1   
   112  112  113 1   
   113  112  119 1   
   114  113  114 1   
   115  113  116 1   
   116  113  120 1   
   117  114  115 2   
   118  114  126 1   
   119  116  117 1   
   120  116  118 1   
   121  116  121 1   
   122  117  123 1   
   123  117  124 1   
   124  117  125 1   
   125  118  122 1   
   126  126  127 1   
   127  126  133 1   
   128  127  128 1   
   129  127  130 1   
   130  127  134 1   
   131  128  129 2   
   132  128  140 1   
   133  130  131 1   
   134  130  132 1   
   135  130  135 1   
   136  131  137 1   
   137  131  138 1   
   138  131  139 1   
   139  132  136 1   
   140  140  141 1   
   141  140  149 1   
   142  141  142 1   
   143  141  144 1   
   144  141  150 1   
   145  142  143 2   
   146  142  162 1   
   147  144  145 1   
   148  144  151 1   
   149  144  152 1   
   150  145  146 1   
   151  145  153 1   
   152  145  154 1   
   153  146  147 1   
   154  146  155 1   
   155  146  156 1   
   156  147  148 1   
   157  147  157 1   
   158  147  158 1   
   159  148  159 1   
   160  148  160 1   
   161  148  161 1   
   162  162  163 1   
   163  162  171 1   
   164  163  164 1   
   165  163  166 1   
   166  163  172 1   
   167  164  165 2   
   168  164  177 1   
   169  166  167 1   
   170  166  173 1   
   171  166  174 1   
   172  167  168 1   
   173  167  175 1   
   174  167  176 1   
   175  168  169 1   
   176  168  170 1   
   177  177  178 1   
   178  177  182 1   
   179  178  179 1   
   180  178  180 1   
   181  178  181 1   
   182  184  185 1   
   183  184  186 1   
   184  187  188 1   
   185  187  189 1   
@<TRIPOS>SUBSTRUCTURE
     1 MOL         1 TEMP              0 ****  ****    0 ROOT
