@<TRIPOS>MOLECULE
MOL
  172   171     1     0     0
SMALL
resp


@<TRIPOS>ATOM
      1 C1         -0.0730   -4.0080    5.3990 c3        1 MOL     -0.391247
      2 C2          0.3860   -3.5890    3.9450 c         1 MOL      0.752814
      3 O1         -0.2480   -3.9760    2.9640 o         1 MOL     -0.574136
      4 H1         -1.0100   -4.5620    5.3380 hc        1 MOL      0.092727
      5 H2          0.6910   -4.6360    5.8550 hc        1 MOL      0.092727
      6 H3         -0.2190   -3.1140    6.0060 hc        1 MOL      0.092727
      7 N1          1.5950   -2.9400    3.9330 n         1 MOL     -0.664890
      8 C3          2.2030   -2.6010    2.6410 c3        1 MOL      0.086978
      9 C4          2.6720   -3.9110    1.9630 c         1 MOL      0.606845
     10 O2          3.4180   -4.7150    2.5800 o         1 MOL     -0.613769
     11 C5          3.4080   -1.6250    2.8450 c3        1 MOL     -0.108781
     12 C6          3.9910   -1.0460    1.5370 c         1 MOL      0.690428
     13 O3          4.8170   -0.1160    1.7050 o         1 MOL     -0.710298
     14 O4          3.6180   -1.4090    0.3940 o         1 MOL     -0.710298
     15 H4          2.1460   -2.8910    4.7860 hn        1 MOL      0.339431
     16 H5          1.4880   -2.1300    1.9670 h1        1 MOL      0.066066
     17 H6          4.2710   -2.0310    3.3800 hc        1 MOL      0.039903
     18 H7          3.0810   -0.7650    3.4300 hc        1 MOL      0.039903
     19 N2          2.2410   -4.0760    0.6940 n         1 MOL     -0.385522
     20 C7          2.3990   -5.2670   -0.1150 c3        1 MOL      0.011543
     21 C8          3.3260   -5.1540   -1.3330 c         1 MOL      0.640335
     22 O5          3.5990   -6.1490   -1.9650 o         1 MOL     -0.607023
     23 C9          1.0220   -5.7190   -0.5100 c3        1 MOL     -0.174287
     24 H8          1.4670   -3.5130    0.3700 hn        1 MOL      0.431408
     25 H9          2.8320   -6.0900    0.4700 h1        1 MOL      0.066643
     26 H10         0.3860   -4.9100   -0.8820 hc        1 MOL      0.039070
     27 H11         0.9840   -6.6630   -1.0530 hc        1 MOL      0.039070
     28 H12         0.6080   -5.9420    0.4750 hc        1 MOL      0.039070
     29 N3          3.9730   -4.0230   -1.4850 n         1 MOL     -0.587846
     30 C10         4.9450   -3.7090   -2.5640 c3        1 MOL      0.305441
     31 C11         6.1540   -3.0080   -1.9470 c         1 MOL      0.378598
     32 O6          7.1450   -2.9870   -2.6580 o         1 MOL     -0.552641
     33 C12         4.3500   -2.9120   -3.7080 c3        1 MOL     -0.235630
     34 C13         3.6440   -1.6500   -3.2230 c         1 MOL      0.770306
     35 O7          2.4640   -1.3950   -3.5520 o         1 MOL     -0.728537
     36 O8          4.2290   -0.8020   -2.4780 o         1 MOL     -0.728537
     37 H13         3.5380   -3.2900   -0.9420 hn        1 MOL      0.239408
     38 H14         5.3120   -4.6350   -3.0030 h1        1 MOL      0.037241
     39 H15         3.5910   -3.5410   -4.1660 hc        1 MOL      0.043996
     40 H16         5.1950   -2.6800   -4.3610 hc        1 MOL      0.043996
     41 N4          6.0910   -2.5090   -0.6900 n         1 MOL     -0.175697
     42 C14         7.2360   -2.0830    0.1760 c3        1 MOL     -0.321257
     43 C15         7.6650   -0.6310   -0.0720 c         1 MOL      0.615872
     44 O9          8.6850   -0.1720    0.3780 o         1 MOL     -0.614483
     45 H17         5.1360   -2.4990   -0.3440 hn        1 MOL      0.154715
     46 H18         8.1150   -2.7030   -0.0250 h1        1 MOL      0.143832
     47 H19         6.8350   -2.2490    1.1740 h1        1 MOL      0.143832
     48 N5          6.8170    0.2030   -0.6460 n         1 MOL     -0.145752
     49 C16         7.1040    1.5350   -1.1090 c3        1 MOL     -0.237046
     50 C17         7.0070    2.6820   -0.0780 c         1 MOL      0.626443
     51 O10         7.6050    3.6920   -0.2770 o         1 MOL     -0.565527
     52 C18         6.3250    1.9310   -2.3690 c3        1 MOL     -0.151682
     53 C19         4.9590    2.4510   -1.9990 c         1 MOL      0.560407
     54 N6          4.7250    3.7180   -2.2480 n         1 MOL     -0.656925
     55 O11         4.1650    1.7700   -1.3230 o         1 MOL     -0.577599
     56 H20         5.8770   -0.1440   -0.8290 hn        1 MOL      0.166238
     57 H21         8.1610    1.4220   -1.3570 h1        1 MOL      0.137167
     58 H22         6.0820    1.0250   -2.9270 hc        1 MOL      0.084331
     59 H23         6.8500    2.5760   -3.0710 hc        1 MOL      0.084331
     60 H24         5.3060    4.3200   -2.8140 hn        1 MOL      0.328361
     61 H25         3.8790    4.1300   -1.8730 hn        1 MOL      0.328361
     62 N7          6.3170    2.4020    1.0590 n         1 MOL     -0.361387
     63 C20         6.0360    3.3950    2.0040 c3        1 MOL     -0.096404
     64 C21         4.8000    4.2830    1.8860 c         1 MOL      0.559633
     65 O12         4.6240    5.1810    2.6810 o         1 MOL     -0.592106
     66 H26         5.6880    1.6140    1.1860 hn        1 MOL      0.325022
     67 H27         6.8170    4.1560    2.0230 h1        1 MOL      0.077529
     68 H28         6.0100    2.9830    3.0170 h1        1 MOL      0.077529
     69 N8          3.8540    3.9530    0.9570 n         1 MOL     -0.263279
     70 C22         2.4480    4.5160    0.9890 c3        1 MOL      0.015337
     71 C23         1.3890    3.4000    0.8470 c         1 MOL      0.436735
     72 O13         1.6280    2.4130    0.1360 o         1 MOL     -0.481797
     73 C24         2.1100    5.6050    0.0220 c3        1 MOL      0.277149
     74 C25         2.7540    6.9920    0.1550 c3        1 MOL     -0.287488
     75 O14         2.3620    5.1160   -1.2790 oh        1 MOL     -0.555972
     76 H29         4.0650    3.2760    0.2310 hn        1 MOL      0.122285
     77 H30         2.2120    4.9550    1.9610 h1        1 MOL      0.070988
     78 H31         1.0790    5.8900    0.2430 h1        1 MOL      0.010673
     79 H32         2.2000    5.8660   -1.8500 ho        1 MOL      0.375196
     80 H33         3.8060    6.9260    0.4630 hc        1 MOL      0.074093
     81 H34         2.7810    7.5810   -0.7600 hc        1 MOL      0.074093
     82 H35         2.2010    7.5730    0.8800 hc        1 MOL      0.074093
     83 N9          0.2000    3.6080    1.4770 n         1 MOL     -0.366999
     84 C26        -0.9470    2.7130    1.5140 c3        1 MOL     -0.035406
     85 C27        -1.9230    2.9870    0.3150 c         1 MOL      0.458548
     86 O15        -2.5510    4.0730    0.1680 o         1 MOL     -0.573712
     87 C28        -1.5460    2.8490    2.9370 c3        1 MOL      0.090105
     88 C29        -0.6280    2.2040    4.0180 c3        1 MOL     -0.030940
     89 C30        -2.9680    2.2360    3.1520 c3        1 MOL     -0.029723
     90 C31        -1.0480    2.3800    5.5120 c3        1 MOL     -0.285889
     91 H36         0.1720    4.4960    1.9540 hn        1 MOL      0.238959
     92 H37        -0.5580    1.7050    1.3930 h1        1 MOL      0.065351
     93 H38        -1.6780    3.9170    3.1170 hc        1 MOL      0.011314
     94 H39         0.3600    2.6700    4.0260 hc        1 MOL      0.043900
     95 H40        -0.5700    1.1210    3.9320 hc        1 MOL      0.043900
     96 H41        -2.9250    1.1500    3.0470 hc        1 MOL     -0.007677
     97 H42        -3.2630    2.4810    4.1760 hc        1 MOL     -0.007677
     98 H43        -3.7370    2.6070    2.4790 hc        1 MOL     -0.007677
     99 H44        -0.2440    2.1340    6.2010 hc        1 MOL      0.068772
    100 H45        -1.4960    3.3660    5.6310 hc        1 MOL      0.068772
    101 H46        -1.7860    1.6440    5.8230 hc        1 MOL      0.068772
    102 N10        -2.0180    1.9290   -0.5170 n         1 MOL     -0.225036
    103 C32        -3.0280    1.8150   -1.5810 c3        1 MOL      0.155440
    104 C33        -4.3800    1.5100   -1.0000 c         1 MOL      0.564818
    105 O16        -4.6080    1.1920    0.1360 o         1 MOL     -0.462561
    106 C34        -2.6610    0.7060   -2.6560 c3        1 MOL     -0.518291
    107 C35        -1.1680    0.7750   -3.0560 c         1 MOL      0.760782
    108 O17        -0.2930    0.2730   -2.3220 o         1 MOL     -0.666964
    109 O18        -0.7830    1.5350   -3.9960 o         1 MOL     -0.666964
    110 H47        -1.3730    1.1630   -0.4220 hn        1 MOL      0.204394
    111 H48        -3.0640    2.7780   -2.0920 h1        1 MOL      0.054512
    112 H49        -3.3410    0.9430   -3.4760 hc        1 MOL      0.143326
    113 H50        -2.8840   -0.2720   -2.2320 hc        1 MOL      0.143326
    114 N11        -5.4240    1.4870   -1.7820 n         1 MOL     -0.741273
    115 C36        -6.7890    1.1410   -1.3000 c3        1 MOL      0.437891
    116 C37        -7.0280   -0.3120   -0.8570 c         1 MOL      0.218195
    117 O19        -7.5690   -0.4920    0.1880 o         1 MOL     -0.438218
    118 C38        -7.8630    1.6450   -2.2690 c3        1 MOL     -0.230185
    119 C39        -9.2140    1.6110   -1.7570 ca        1 MOL      0.288495
    120 C40        -9.5060    2.2570   -0.6080 ca        1 MOL     -0.302814
    121 C41       -10.2200    0.8770   -2.3970 ca        1 MOL     -0.302814
    122 C42       -10.7930    2.2970   -0.0840 ca        1 MOL     -0.003963
    123 C43       -11.5540    0.8910   -1.8680 ca        1 MOL     -0.003963
    124 C44       -11.8240    1.6560   -0.7540 ca        1 MOL     -0.221328
    125 H51        -5.2810    1.5760   -2.7760 hn        1 MOL      0.324507
    126 H52        -6.9080    1.6680   -0.3500 h1        1 MOL      0.061256
    127 H53        -7.9140    1.1700   -3.2540 hc        1 MOL      0.048887
    128 H54        -7.7420    2.6950   -2.5230 hc        1 MOL      0.048887
    129 H55        -8.7420    2.8120   -0.0890 ha        1 MOL      0.137064
    130 H56        -9.9390    0.2470   -3.2180 ha        1 MOL      0.137064
    131 H57       -10.9180    2.9990    0.7260 ha        1 MOL      0.088438
    132 H58       -12.3730    0.3210   -2.2820 ha        1 MOL      0.088438
    133 H59       -12.8210    1.6440   -0.3300 ha        1 MOL      0.115688
    134 N12        -6.4970   -1.3270   -1.5450 n         1 MOL     -0.047004
    135 C45        -6.4300   -2.7040   -0.9750 c3        1 MOL      0.032333
    136 C46        -5.6720   -2.8830    0.3850 c         1 MOL      0.243935
    137 O20        -6.1970   -3.7010    1.1390 o         1 MOL     -0.480682
    138 C47        -5.6220   -3.4860   -2.1020 c3        1 MOL     -0.075542
    139 C48        -6.0010   -2.7660   -3.4600 c3        1 MOL     -0.265386
    140 C49        -5.9920   -1.3560   -2.8970 c3        1 MOL      0.114515
    141 H60        -7.4450   -3.0790   -0.8490 h1        1 MOL      0.075414
    142 H61        -4.5480   -3.3450   -2.0550 hc        1 MOL      0.070255
    143 H62        -5.9160   -4.5400   -2.1140 hc        1 MOL      0.070255
    144 H63        -5.1750   -2.9430   -4.1510 hc        1 MOL      0.096702
    145 H64        -7.0330   -3.0200   -3.7190 hc        1 MOL      0.096702
    146 H65        -5.0010   -0.9040   -2.9420 h1        1 MOL     -0.003088
    147 H66        -6.5860   -0.7600   -3.5930 h1        1 MOL     -0.003088
    148 N13        -4.6850   -2.0760    0.7110 n         1 MOL     -0.042336
    149 C50        -3.8610   -2.1520    1.8760 c3        1 MOL     -0.133394
    150 C51        -4.5860   -1.5090    3.0420 c         1 MOL      0.490427
    151 O21        -4.6930   -1.9850    4.1730 o         1 MOL     -0.570412
    152 C52        -2.3630   -1.6050    1.6140 c3        1 MOL     -0.046781
    153 C53        -1.5450   -2.1130    0.4210 c3        1 MOL      0.001875
    154 C54        -0.2100   -1.4500    0.1790 c         1 MOL      0.715244
    155 O22         0.1170   -0.2900    0.5280 o         1 MOL     -0.792713
    156 O23         0.6590   -2.0470   -0.4450 o         1 MOL     -0.792713
    157 H67        -4.4100   -1.4520   -0.0230 hn        1 MOL      0.128456
    158 H68        -3.7830   -3.1880    2.1840 h1        1 MOL      0.108454
    159 H69        -1.8750   -1.8600    2.5600 hc        1 MOL      0.042825
    160 H70        -2.3460   -0.5310    1.4140 hc        1 MOL      0.042825
    161 H71        -2.1350   -2.0050   -0.4880 hc        1 MOL      0.007773
    162 H72        -1.3410   -3.1760    0.5580 hc        1 MOL      0.007773
    163 N14        -5.3250   -0.4310    2.7210 n         1 MOL      0.032623
    164 C55        -6.3210    0.2480    3.6040 c3        1 MOL     -0.256431
    165 H73        -7.2630   -0.3000    3.5750 h1        1 MOL      0.089160
    166 H74        -5.9450    0.2700    4.6270 h1        1 MOL      0.089160
    167 H75        -6.4830    1.2670    3.2530 h1        1 MOL      0.089160
    168 H76        -5.4620   -0.3490    1.7210 hn        1 MOL      0.047482
    169 Ca1         2.0900    0.0590   -1.1200 Ca        1 MOL      1.779006
    170 O24         1.5390    2.4200   -2.9140 oh        1 MOL     -0.833175
    171 H77         0.7190    2.1430   -3.3250 ho        1 MOL      0.373793
    172 H78         1.4540    3.3620   -2.8110 ho        1 MOL      0.373793
@<TRIPOS>BOND
     1    1    2 1   
     2    1    4 1   
     3    1    5 1   
     4    1    6 1   
     5    2    3 2   
     6    2    7 1   
     7    7    8 1   
     8    7   15 1   
     9    8    9 1   
    10    8   11 1   
    11    8   16 1   
    12    9   10 2   
    13    9   19 1   
    14   11   12 1   
    15   11   17 1   
    16   11   18 1   
    17   12   13 1   
    18   12   14 1   
    19   19   20 1   
    20   19   24 1   
    21   20   21 1   
    22   20   23 1   
    23   20   25 1   
    24   21   22 2   
    25   21   29 1   
    26   23   26 1   
    27   23   27 1   
    28   23   28 1   
    29   29   30 1   
    30   29   37 1   
    31   30   31 1   
    32   30   33 1   
    33   30   38 1   
    34   31   32 2   
    35   31   41 1   
    36   33   34 1   
    37   33   39 1   
    38   33   40 1   
    39   34   35 1   
    40   34   36 1   
    41   41   42 1   
    42   41   45 1   
    43   42   43 1   
    44   42   46 1   
    45   42   47 1   
    46   43   44 2   
    47   43   48 1   
    48   48   49 1   
    49   48   56 1   
    50   49   50 1   
    51   49   52 1   
    52   49   57 1   
    53   50   51 2   
    54   50   62 1   
    55   52   53 1   
    56   52   58 1   
    57   52   59 1   
    58   53   54 1   
    59   53   55 2   
    60   54   60 1   
    61   54   61 1   
    62   62   63 1   
    63   62   66 1   
    64   63   64 1   
    65   63   67 1   
    66   63   68 1   
    67   64   65 2   
    68   64   69 1   
    69   69   70 1   
    70   69   76 1   
    71   70   71 1   
    72   70   73 1   
    73   70   77 1   
    74   71   72 2   
    75   71   83 1   
    76   73   74 1   
    77   73   75 1   
    78   73   78 1   
    79   74   80 1   
    80   74   81 1   
    81   74   82 1   
    82   75   79 1   
    83   83   84 1   
    84   83   91 1   
    85   84   85 1   
    86   84   87 1   
    87   84   92 1   
    88   85   86 2   
    89   85  102 1   
    90   87   88 1   
    91   87   89 1   
    92   87   93 1   
    93   88   90 1   
    94   88   94 1   
    95   88   95 1   
    96   89   96 1   
    97   89   97 1   
    98   89   98 1   
    99   90   99 1   
   100   90  100 1   
   101   90  101 1   
   102  102  103 1   
   103  102  110 1   
   104  103  104 1   
   105  103  106 1   
   106  103  111 1   
   107  104  105 2   
   108  104  114 1   
   109  106  107 1   
   110  106  112 1   
   111  106  113 1   
   112  107  108 1   
   113  107  109 1   
   114  114  115 1   
   115  114  125 1   
   116  115  116 1   
   117  115  118 1   
   118  115  126 1   
   119  116  117 2   
   120  116  134 1   
   121  118  119 1   
   122  118  127 1   
   123  118  128 1   
   124  119  120 ar  
   125  119  121 ar  
   126  120  122 ar  
   127  120  129 1   
   128  121  123 ar  
   129  121  130 1   
   130  122  124 ar  
   131  122  131 1   
   132  123  124 ar  
   133  123  132 1   
   134  124  133 1   
   135  134  135 1   
   136  134  140 1   
   137  135  136 1   
   138  135  138 1   
   139  135  141 1   
   140  136  137 2   
   141  136  148 1   
   142  138  139 1   
   143  138  142 1   
   144  138  143 1   
   145  139  140 1   
   146  139  144 1   
   147  139  145 1   
   148  140  146 1   
   149  140  147 1   
   150  148  149 1   
   151  148  157 1   
   152  149  150 1   
   153  149  152 1   
   154  149  158 1   
   155  150  151 2   
   156  150  163 1   
   157  152  153 1   
   158  152  159 1   
   159  152  160 1   
   160  153  154 1   
   161  153  161 1   
   162  153  162 1   
   163  154  155 1   
   164  154  156 1   
   165  163  164 1   
   166  163  168 1   
   167  164  165 1   
   168  164  166 1   
   169  164  167 1   
   170  170  171 1   
   171  170  172 1   
@<TRIPOS>SUBSTRUCTURE
     1 MOL         1 TEMP              0 ****  ****    0 ROOT
