@<TRIPOS>MOLECULE
MOL
  189   185     1     0     0
SMALL
resp


@<TRIPOS>ATOM
      1 C1         -0.1120   -3.4520    5.8870 c3        1 MOL     -0.462453
      2 C2          0.5020   -2.9690    4.5490 c         1 MOL      0.654207
      3 O1          0.5120   -1.7770    4.2920 o         1 MOL     -0.552019
      4 H1         -0.0600   -4.5400    5.9380 hc        1 MOL      0.117600
      5 H2          0.4470   -3.0230    6.7190 hc        1 MOL      0.117600
      6 H3         -1.1530   -3.1340    5.9450 hc        1 MOL      0.117600
      7 N1          1.0620   -3.9570    3.8950 n         1 MOL     -0.456153
      8 C3          1.8450   -3.8570    2.6510 c3        1 MOL      0.143734
      9 C4          1.6020   -5.1350    1.7850 c         1 MOL      0.481667
     10 O2          1.4660   -6.2510    2.2760 o         1 MOL     -0.559955
     11 C5          3.3610   -3.6930    2.9010 c3        1 MOL     -0.282885
     12 C6          4.0800   -3.3220    1.5600 c         1 MOL      0.657322
     13 O3          5.1040   -3.9410    1.2280 o         1 MOL     -0.636193
     14 O4          3.6070   -2.3510    0.8880 o         1 MOL     -0.636193
     15 H4          0.9130   -4.8680    4.2740 hn        1 MOL      0.281726
     16 H5          1.4150   -2.9770    2.1650 h1        1 MOL     -0.003637
     17 H6          3.7430   -4.5910    3.3920 hc        1 MOL      0.066353
     18 H7          3.5280   -2.9150    3.6490 hc        1 MOL      0.066353
     19 N2          1.5720   -4.8840    0.4200 n         1 MOL     -0.012915
     20 C7          1.6870   -5.9460   -0.5960 c3        1 MOL     -0.330313
     21 C8          2.8200   -5.6200   -1.5450 c         1 MOL      0.525383
     22 O5          3.2230   -6.5790   -2.2930 o         1 MOL     -0.599752
     23 C9          0.3730   -6.2600   -1.3770 c3        1 MOL      0.119683
     24 C10         0.0750   -5.1450   -2.4640 c3        1 MOL     -0.179456
     25 C11        -0.7380   -6.3220   -0.3050 c3        1 MOL     -0.092568
     26 C12        -1.1960   -5.4330   -3.2470 c3        1 MOL     -0.164728
     27 H8          1.2240   -3.9840    0.1300 hn        1 MOL      0.086501
     28 H9          2.0020   -6.8540   -0.0890 h1        1 MOL      0.145597
     29 H10         0.4150   -7.2630   -1.7990 hc        1 MOL      0.042640
     30 H11         0.9380   -5.1450   -3.1270 hc        1 MOL      0.102008
     31 H12         0.0410   -4.1420   -2.0350 hc        1 MOL      0.102008
     32 H13        -0.6730   -7.2650    0.2390 hc        1 MOL      0.013367
     33 H14        -0.8800   -5.4720    0.3710 hc        1 MOL      0.013367
     34 H15        -1.6270   -6.5580   -0.8830 hc        1 MOL      0.013367
     35 H16        -1.2980   -4.7640   -4.1070 hc        1 MOL      0.046364
     36 H17        -1.2510   -6.4640   -3.5920 hc        1 MOL      0.046364
     37 H18        -2.0940   -5.2560   -2.6560 hc        1 MOL      0.046364
     38 N3          3.2410   -4.3640   -1.6290 n         1 MOL     -0.229358
     39 C13         3.9340   -3.8340   -2.8720 c3        1 MOL     -0.003761
     40 C14         5.3840   -3.3890   -2.5970 c         1 MOL      0.313180
     41 O6          6.2090   -3.2640   -3.5120 o         1 MOL     -0.543310
     42 C15         3.2040   -2.7430   -3.5830 c3        1 MOL     -0.118035
     43 C16         2.7340   -1.6140   -2.7080 c         1 MOL      0.764318
     44 O7          3.4090   -1.2720   -1.7210 o         1 MOL     -0.723220
     45 O8          1.7110   -0.9740   -3.1260 o         1 MOL     -0.723220
     46 H19         2.9550   -3.6470   -0.9780 hn        1 MOL      0.154196
     47 H20         4.0010   -4.6590   -3.5690 h1        1 MOL      0.099077
     48 H21         2.3230   -3.1890   -4.0440 hc        1 MOL      0.034761
     49 H22         3.7990   -2.4260   -4.4420 hc        1 MOL      0.034761
     50 N4          5.7280   -3.0720   -1.3620 n         1 MOL     -0.015671
     51 C17         6.9810   -2.4860   -0.9500 c3        1 MOL     -0.134857
     52 C18         7.3630   -1.0720   -1.4320 c         1 MOL      0.429787
     53 O9          8.5360   -0.8820   -1.6230 o         1 MOL     -0.553329
     54 H23         4.9840   -2.9940   -0.6940 hn        1 MOL      0.009675
     55 H24         7.7540   -3.1810   -1.2450 h1        1 MOL      0.091475
     56 H25         7.0510   -2.5110    0.1400 h1        1 MOL      0.091475
     57 N5          6.4650   -0.0690   -1.6890 n         1 MOL     -0.295568
     58 C19         6.8630    1.2140   -2.3000 c3        1 MOL      0.044955
     59 C20         7.5380    2.1300   -1.2880 c         1 MOL      0.422841
     60 O10         8.5080    2.8480   -1.4990 o         1 MOL     -0.554315
     61 C21         5.7340    1.9620   -2.9250 c3        1 MOL     -0.250012
     62 C22         4.4160    2.0970   -2.1380 c         1 MOL      0.670326
     63 O11         4.2380    1.4690   -1.0830 o         1 MOL     -0.660392
     64 O12         3.4470    2.6880   -2.6940 o         1 MOL     -0.660392
     65 H26         5.4940   -0.1980   -1.4360 hn        1 MOL      0.330219
     66 H27         7.6750    0.9900   -2.9920 h1        1 MOL      0.086875
     67 H28         5.4340    1.3740   -3.7870 hc        1 MOL      0.079264
     68 H29         6.1030    2.8880   -3.3550 hc        1 MOL      0.079264
     69 N6          6.8980    2.1690   -0.1070 n         1 MOL     -0.207148
     70 C23         7.1810    3.1150    0.9240 c3        1 MOL      0.127430
     71 C24         6.0220    4.1080    1.1080 c         1 MOL      0.515936
     72 O13         6.2450    5.2350    1.4350 o         1 MOL     -0.609901
     73 H30         6.0860    1.5750    0.0370 hn        1 MOL      0.126652
     74 H31         8.1300    3.6610    0.8490 h1        1 MOL     -0.004899
     75 H32         7.2950    2.5390    1.8350 h1        1 MOL     -0.004899
     76 N7          4.8030    3.7180    0.7120 n         1 MOL     -0.204346
     77 C25         3.5470    4.4710    1.0830 c3        1 MOL     -0.225558
     78 C26         2.3960    3.3910    1.4340 c         1 MOL      0.476043
     79 O14         2.3450    2.3250    0.7530 o         1 MOL     -0.368503
     80 C27         3.1110    5.4230   -0.0960 c3        1 MOL      0.062570
     81 C28         4.0290    6.6460   -0.3610 c3        1 MOL     -0.352292
     82 C29         3.5200    7.5970   -1.4440 c         1 MOL      0.643559
     83 N8          4.4220    8.2450   -2.1960 n         1 MOL     -0.726306
     84 O15         2.3350    7.7240   -1.7050 o         1 MOL     -0.554686
     85 H33         4.6180    2.8410    0.2490 hn        1 MOL      0.156478
     86 H34         3.6470    5.0850    1.9740 h1        1 MOL      0.102379
     87 H35         2.0750    5.7200    0.0680 hc        1 MOL      0.055495
     88 H36         3.0370    4.9120   -1.0560 hc        1 MOL      0.055495
     89 H37         4.9700    6.2300   -0.7250 hc        1 MOL      0.125202
     90 H38         4.0360    7.2730    0.5300 hc        1 MOL      0.125202
     91 H39         5.3600    8.2960   -1.8170 hn        1 MOL      0.326072
     92 H40         4.0200    8.8990   -2.8580 hn        1 MOL      0.326072
     93 N9          1.4350    3.7250    2.2510 n         1 MOL     -0.424365
     94 C30         0.2130    2.9940    2.5030 c3        1 MOL      0.074190
     95 C31        -0.9690    3.4070    1.6370 c         1 MOL      0.627159
     96 O16        -1.4800    4.5080    1.7180 o         1 MOL     -0.594265
     97 C32        -0.0830    2.8070    4.0090 c3        1 MOL      0.237807
     98 C33        -0.4500    4.0900    4.7470 c3        1 MOL     -0.257553
     99 C34        -1.2250    1.7930    4.1730 c3        1 MOL     -0.257553
    100 H41         1.5760    4.5430    2.8210 hn        1 MOL      0.276231
    101 H42         0.4290    1.9690    2.2010 h1        1 MOL     -0.161352
    102 H43         0.8050    2.4040    4.4990 hc        1 MOL     -0.037753
    103 H44        -1.4030    4.4570    4.3730 hc        1 MOL      0.051386
    104 H45        -0.6200    3.8090    5.7930 hc        1 MOL      0.051386
    105 H46         0.2930    4.8740    4.6430 hc        1 MOL      0.051386
    106 H47        -1.6070    1.5950    5.1750 hc        1 MOL      0.051386
    107 H48        -2.0910    2.0800    3.5790 hc        1 MOL      0.051386
    108 H49        -0.7830    0.8740    3.7890 hc        1 MOL      0.051386
    109 N10        -1.4010    2.5220    0.7450 n         1 MOL     -0.256897
    110 C35        -2.4910    2.6570   -0.2670 c3        1 MOL      0.020498
    111 C36        -3.8490    2.5260    0.5240 c         1 MOL      0.226378
    112 O17        -3.8630    1.9750    1.6240 o         1 MOL     -0.371110
    113 C37        -2.3000    1.4930   -1.2660 c3        1 MOL     -0.286556
    114 C38        -3.4130    1.4880   -2.2880 c         1 MOL      0.746403
    115 N11        -3.5580    2.5660   -3.0370 n         1 MOL     -0.839821
    116 O18        -4.2020    0.5480   -2.3650 o         1 MOL     -0.558478
    117 H50        -0.8800    1.6540    0.6640 hn        1 MOL      0.193573
    118 H51        -2.5000    3.6480   -0.7360 h1        1 MOL      0.072605
    119 H52        -2.2320    0.5800   -0.6640 hc        1 MOL      0.131844
    120 H53        -1.3860    1.6980   -1.8130 hc        1 MOL      0.131844
    121 H54        -2.8230    3.2510   -3.1220 hn        1 MOL      0.374094
    122 H55        -4.2610    2.5420   -3.7670 hn        1 MOL      0.374094
    123 N12        -4.9660    2.9350   -0.0100 n         1 MOL     -0.153891
    124 C39        -6.3560    2.7810    0.6490 c3        1 MOL      0.067893
    125 C40        -6.7870    1.3510    0.8410 c         1 MOL      0.506499
    126 O19        -7.3960    1.0660    1.8370 o         1 MOL     -0.570085
    127 C41        -7.4020    3.6210   -0.0790 c3        1 MOL     -0.262251
    128 C42        -7.7440    2.9560   -1.3910 ca        1 MOL      0.066378
    129 C43        -8.8780    2.0550   -1.5610 ca        1 MOL     -0.172861
    130 C44        -7.1190    3.2780   -2.5840 ca        1 MOL     -0.172861
    131 C45        -9.3140    1.6020   -2.8480 ca        1 MOL     -0.322045
    132 C46        -7.5420    2.8950   -3.8840 ca        1 MOL     -0.322045
    133 C47        -8.5970    1.9610   -4.0370 ca        1 MOL      0.414718
    134 O20        -8.8510    1.4490   -5.2620 oh        1 MOL     -0.548308
    135 H56        -4.9350    3.4680   -0.8750 hn        1 MOL      0.150729
    136 H57        -6.2770    3.1790    1.6590 h1        1 MOL      0.057041
    137 H58        -7.0130    4.6290   -0.2420 hc        1 MOL      0.098152
    138 H59        -8.2740    3.5790    0.5780 hc        1 MOL      0.098152
    139 H60        -9.4450    1.7160   -0.7040 ha        1 MOL      0.139009
    140 H61        -6.3080    3.9760   -2.5280 ha        1 MOL      0.139009
    141 H62       -10.2150    1.0090   -2.8600 ha        1 MOL      0.159465
    142 H63        -6.9520    3.3050   -4.6880 ha        1 MOL      0.159465
    143 H64        -9.5670    0.8150   -5.3910 ho        1 MOL      0.429718
    144 N13        -6.4540    0.3650   -0.0250 n         1 MOL     -0.168930
    145 C48        -6.8230   -1.0680    0.2620 c3        1 MOL     -0.082275
    146 C49        -5.9470   -1.6700    1.4010 c         1 MOL      0.336966
    147 O21        -6.4550   -2.4750    2.2020 o         1 MOL     -0.499379
    148 C50        -6.6950   -2.0550   -0.9290 c3        1 MOL     -0.067534
    149 C51        -7.5240   -1.6350   -2.1750 c3        1 MOL     -0.204379
    150 C52        -7.7570   -2.8520   -3.1400 c         1 MOL      0.720857
    151 O22        -7.4580   -2.6730   -4.3190 o         1 MOL     -0.743840
    152 O23        -8.3040   -3.9100   -2.7260 o         1 MOL     -0.743840
    153 H65        -5.9460    0.5370   -0.8840 hn        1 MOL      0.225283
    154 H66        -7.8600   -1.1430    0.5760 h1        1 MOL      0.090448
    155 H67        -7.0810   -3.0330   -0.6340 hc        1 MOL      0.056329
    156 H68        -5.6550   -2.1640   -1.2260 hc        1 MOL      0.056329
    157 H69        -7.0170   -0.8100   -2.6730 hc        1 MOL      0.051856
    158 H70        -8.5810   -1.4210   -2.0040 hc        1 MOL      0.051856
    159 N14        -4.6830   -1.2680    1.4480 n         1 MOL     -0.064522
    160 C53        -3.7650   -1.7270    2.4710 c3        1 MOL     -0.235505
    161 C54        -4.1470   -1.0890    3.8410 c         1 MOL      0.405311
    162 O24        -3.9810   -1.7730    4.8540 o         1 MOL     -0.575086
    163 C55        -2.2950   -1.3650    2.1820 c3        1 MOL     -0.105796
    164 C56        -1.7170   -2.0470    0.9060 c3        1 MOL     -0.122338
    165 C57        -0.2850   -1.6040    0.6620 c         1 MOL      0.817630
    166 O25         0.5180   -2.2810   -0.0250 o         1 MOL     -0.722836
    167 O26        -0.0440   -0.3810    0.8840 o         1 MOL     -0.722836
    168 H71        -4.2890   -0.6390    0.7670 hn        1 MOL      0.122149
    169 H72        -3.6720   -2.8150    2.5280 h1        1 MOL      0.128507
    170 H73        -1.6080   -1.5940    2.9930 hc        1 MOL      0.117998
    171 H74        -2.3420   -0.2960    1.9970 hc        1 MOL      0.117998
    172 H75        -2.3300   -1.7660    0.0430 hc        1 MOL      0.045119
    173 H76        -1.7270   -3.1270    1.0780 hc        1 MOL      0.045119
    174 N15        -4.6120    0.1150    3.8890 n         1 MOL      0.037670
    175 C58        -5.0340    0.7460    5.1380 c3        1 MOL     -0.165300
    176 H77        -5.0410    0.0020    5.9360 h1        1 MOL      0.064344
    177 H78        -4.3390    1.5460    5.3950 h1        1 MOL      0.064344
    178 H79        -6.0360    1.1580    5.0180 h1        1 MOL      0.064344
    179 H80        -4.5990    0.6930    3.0620 hn        1 MOL      0.089644
    180 Ca1         2.4980   -0.1860    0.3490 Ca        1 MOL      1.761814
    181 O27         1.9670   -0.2660    2.9470 oh        1 MOL     -0.980118
    182 H81         2.0540    0.5190    3.5000 ho        1 MOL      0.451102
    183 H82         1.3990   -0.8470    3.4500 ho        1 MOL      0.451102
    184 O28         1.4790    1.3140   -1.6850 oh        1 MOL     -0.980118
    185 H83         1.5590    0.5880   -2.3020 ho        1 MOL      0.451102
    186 H84         2.1630    1.9340   -1.9550 ho        1 MOL      0.451102
    187 O29         4.6470    0.7400    1.9360 oh        1 MOL     -0.980118
    188 H85         5.4160    0.1800    2.0270 ho        1 MOL      0.451102
    189 H86         4.3530    0.8890    2.8400 ho        1 MOL      0.451102
@<TRIPOS>BOND
     1    1    2 1   
     2    1    4 1   
     3    1    5 1   
     4    1    6 1   
     5    2    3 2   
     6    2    7 1   
     7    7    8 1   
     8    7   15 1   
     9    8    9 1   
    10    8   11 1   
    11    8   16 1   
    12    9   10 2   
    13    9   19 1   
    14   11   12 1   
    15   11   17 1   
    16   11   18 1   
    17   12   13 1   
    18   12   14 1   
    19   19   20 1   
    20   19   27 1   
    21   20   21 1   
    22   20   23 1   
    23   20   28 1   
    24   21   22 2   
    25   21   38 1   
    26   23   24 1   
    27   23   25 1   
    28   23   29 1   
    29   24   26 1   
    30   24   30 1   
    31   24   31 1   
    32   25   32 1   
    33   25   33 1   
    34   25   34 1   
    35   26   35 1   
    36   26   36 1   
    37   26   37 1   
    38   38   39 1   
    39   38   46 1   
    40   39   40 1   
    41   39   42 1   
    42   39   47 1   
    43   40   41 2   
    44   40   50 1   
    45   42   43 1   
    46   42   48 1   
    47   42   49 1   
    48   43   44 1   
    49   43   45 1   
    50   50   51 1   
    51   50   54 1   
    52   51   52 1   
    53   51   55 1   
    54   51   56 1   
    55   52   53 2   
    56   52   57 1   
    57   57   58 1   
    58   57   65 1   
    59   58   59 1   
    60   58   61 1   
    61   58   66 1   
    62   59   60 2   
    63   59   69 1   
    64   61   62 1   
    65   61   67 1   
    66   61   68 1   
    67   62   63 1   
    68   62   64 1   
    69   69   70 1   
    70   69   73 1   
    71   70   71 1   
    72   70   74 1   
    73   70   75 1   
    74   71   72 2   
    75   71   76 1   
    76   76   77 1   
    77   76   85 1   
    78   77   78 1   
    79   77   80 1   
    80   77   86 1   
    81   78   79 2   
    82   78   93 1   
    83   80   81 1   
    84   80   87 1   
    85   80   88 1   
    86   81   82 1   
    87   81   89 1   
    88   81   90 1   
    89   82   83 1   
    90   82   84 2   
    91   83   91 1   
    92   83   92 1   
    93   93   94 1   
    94   93  100 1   
    95   94   95 1   
    96   94   97 1   
    97   94  101 1   
    98   95   96 2   
    99   95  109 1   
   100   97   98 1   
   101   97   99 1   
   102   97  102 1   
   103   98  103 1   
   104   98  104 1   
   105   98  105 1   
   106   99  106 1   
   107   99  107 1   
   108   99  108 1   
   109  109  110 1   
   110  109  117 1   
   111  110  111 1   
   112  110  113 1   
   113  110  118 1   
   114  111  112 2   
   115  111  123 1   
   116  113  114 1   
   117  113  119 1   
   118  113  120 1   
   119  114  115 1   
   120  114  116 2   
   121  115  121 1   
   122  115  122 1   
   123  123  124 1   
   124  123  135 1   
   125  124  125 1   
   126  124  127 1   
   127  124  136 1   
   128  125  126 2   
   129  125  144 1   
   130  127  128 1   
   131  127  137 1   
   132  127  138 1   
   133  128  129 ar  
   134  128  130 ar  
   135  129  131 ar  
   136  129  139 1   
   137  130  132 ar  
   138  130  140 1   
   139  131  133 ar  
   140  131  141 1   
   141  132  133 ar  
   142  132  142 1   
   143  133  134 1   
   144  134  143 1   
   145  144  145 1   
   146  144  153 1   
   147  145  146 1   
   148  145  148 1   
   149  145  154 1   
   150  146  147 2   
   151  146  159 1   
   152  148  149 1   
   153  148  155 1   
   154  148  156 1   
   155  149  150 1   
   156  149  157 1   
   157  149  158 1   
   158  150  151 1   
   159  150  152 1   
   160  159  160 1   
   161  159  168 1   
   162  160  161 1   
   163  160  163 1   
   164  160  169 1   
   165  161  162 2   
   166  161  174 1   
   167  163  164 1   
   168  163  170 1   
   169  163  171 1   
   170  164  165 1   
   171  164  172 1   
   172  164  173 1   
   173  165  166 1   
   174  165  167 1   
   175  174  175 1   
   176  174  179 1   
   177  175  176 1   
   178  175  177 1   
   179  175  178 1   
   180  181  182 1   
   181  181  183 1   
   182  184  185 1   
   183  184  186 1   
   184  187  188 1   
   185  187  189 1   
@<TRIPOS>SUBSTRUCTURE
     1 MOL         1 TEMP              0 ****  ****    0 ROOT
