@<TRIPOS>MOLECULE
MOL
  175   173     1     0     0
SMALL
resp


@<TRIPOS>ATOM
      1 C1          0.6100    3.8760    5.5390 c3        1 MOL     -0.311047
      2 C2          0.1700    3.6300    4.0720 c         1 MOL      0.682159
      3 O1          1.0590    3.6730    3.2180 o         1 MOL     -0.509478
      4 H1         -0.0630    3.3470    6.2130 hc        1 MOL      0.065969
      5 H2          1.6270    3.5090    5.6790 hc        1 MOL      0.065969
      6 H3          0.5750    4.9430    5.7550 hc        1 MOL      0.065969
      7 N1         -1.1200    3.5870    3.8890 n         1 MOL     -0.579995
      8 C3         -1.7520    3.4530    2.5680 c3        1 MOL     -0.042409
      9 C4         -1.8040    4.7560    1.6880 c         1 MOL      0.690809
     10 O2         -1.9780    5.8610    2.2320 o         1 MOL     -0.593209
     11 C5         -3.2640    3.1420    2.8620 c3        1 MOL     -0.410050
     12 C6         -3.9170    2.4610    1.6550 c         1 MOL      0.838605
     13 O3         -5.1200    2.2060    1.8150 o         1 MOL     -0.688359
     14 O4         -3.3250    2.1790    0.5660 o         1 MOL     -0.688359
     15 H4         -1.7860    3.7720    4.6250 hn        1 MOL      0.346443
     16 H5         -1.3150    2.5640    2.1200 h1        1 MOL      0.150771
     17 H6         -3.6810    4.1020    3.1410 hc        1 MOL      0.102490
     18 H7         -3.3930    2.4820    3.7260 hc        1 MOL      0.102490
     19 N2         -1.7980    4.5570    0.3980 n         1 MOL     -0.673577
     20 C7         -2.2400    5.6410   -0.4890 c3        1 MOL      0.451279
     21 C8         -3.1670    5.1570   -1.6610 c         1 MOL      0.492585
     22 O5         -3.1910    5.8730   -2.6370 o         1 MOL     -0.562409
     23 C9         -1.0820    6.4610   -0.9510 c3        1 MOL     -0.275708
     24 H8         -1.6300    3.6280    0.0320 hn        1 MOL      0.386402
     25 H9         -2.9290    6.3210    0.0240 h1        1 MOL     -0.038853
     26 H10        -0.4550    6.8060   -0.1320 hc        1 MOL      0.057201
     27 H11        -0.4410    5.8990   -1.6310 hc        1 MOL      0.057201
     28 H12        -1.4530    7.2160   -1.6400 hc        1 MOL      0.057201
     29 N3         -3.8070    4.0000   -1.6390 n         1 MOL     -0.514120
     30 C10        -4.6880    3.4920   -2.7710 c3        1 MOL      0.200612
     31 C11        -6.0410    2.8820   -2.3850 c         1 MOL      0.354757
     32 O6         -6.8920    2.8290   -3.2710 o         1 MOL     -0.544361
     33 C12        -3.7880    2.5920   -3.6280 c3        1 MOL     -0.150804
     34 C13        -3.1900    1.4860   -2.7980 c         1 MOL      0.669132
     35 O7         -3.9100    0.8110   -2.0720 o         1 MOL     -0.705959
     36 O8         -1.9650    1.3360   -2.6830 o         1 MOL     -0.705959
     37 H13        -3.7580    3.4580   -0.7880 hn        1 MOL      0.237563
     38 H14        -4.9400    4.3180   -3.4390 h1        1 MOL      0.043423
     39 H15        -2.9710    3.1810   -4.0230 hc        1 MOL      0.045944
     40 H16        -4.3740    2.2570   -4.4810 hc        1 MOL      0.045944
     41 N4         -6.2560    2.3750   -1.1830 n         1 MOL     -0.115296
     42 C14        -7.4430    1.6680   -0.7320 c3        1 MOL     -0.406975
     43 C15        -7.4630    0.1580   -0.9550 c         1 MOL      0.604869
     44 O9         -8.4610   -0.4690   -0.6590 o         1 MOL     -0.619288
     45 H17        -5.5170    2.3790   -0.4920 hn        1 MOL      0.138617
     46 H18        -8.3350    2.2050   -1.0830 h1        1 MOL      0.167500
     47 H19        -7.3370    1.7710    0.3420 h1        1 MOL      0.167500
     48 N5         -6.4320   -0.4770   -1.5460 n         1 MOL     -0.160347
     49 C16        -6.4310   -1.8490   -2.0540 c3        1 MOL     -0.315177
     50 C17        -6.4870   -3.0260   -1.0340 c         1 MOL      0.602552
     51 O10        -6.7080   -4.1530   -1.4440 o         1 MOL     -0.556072
     52 C18        -5.3110   -2.1750   -3.0920 c3        1 MOL      0.055901
     53 C19        -3.9340   -2.1870   -2.4600 c         1 MOL      0.487758
     54 N6         -2.8810   -1.9850   -3.2790 n         1 MOL     -0.711031
     55 O11        -3.6690   -2.2950   -1.2740 o         1 MOL     -0.420603
     56 H20        -5.6520    0.1370   -1.7050 hn        1 MOL      0.198096
     57 H21        -7.3960   -1.9350   -2.5550 h1        1 MOL      0.141882
     58 H22        -5.1790   -1.5000   -3.9300 hc        1 MOL      0.030205
     59 H23        -5.4960   -3.0710   -3.6830 hc        1 MOL      0.030205
     60 H24        -3.0030   -1.8340   -4.2650 hn        1 MOL      0.345363
     61 H25        -1.9620   -1.8540   -2.8530 hn        1 MOL      0.345363
     62 N7         -6.4660   -2.6610    0.2770 n         1 MOL     -0.230022
     63 C20        -6.5650   -3.7020    1.3590 c3        1 MOL     -0.271371
     64 C21        -5.2320   -4.4280    1.6480 c         1 MOL      0.581498
     65 O12        -5.2470   -5.2750    2.4990 o         1 MOL     -0.576753
     66 H26        -6.3750   -1.7070    0.5910 hn        1 MOL      0.213973
     67 H27        -7.4420   -4.3010    1.1410 h1        1 MOL      0.117347
     68 H28        -6.7930   -3.1500    2.2740 h1        1 MOL      0.117347
     69 N8         -4.0760   -4.0360    1.0830 n         1 MOL     -0.138337
     70 C22        -2.7660   -4.5790    1.3090 c3        1 MOL     -0.270182
     71 C23        -1.6450   -3.5470    1.5080 c         1 MOL      0.758464
     72 O13        -1.8520   -2.3990    1.0720 o         1 MOL     -0.664298
     73 C24        -2.3780   -5.5310    0.1660 c3        1 MOL      0.357307
     74 C25        -3.2690   -6.7410    0.1140 c3        1 MOL     -0.436907
     75 O14        -2.6240   -4.8470   -1.0610 oh        1 MOL     -0.522795
     76 H29        -4.1480   -3.3300    0.3650 hn        1 MOL      0.079548
     77 H30        -2.8330   -5.0170    2.3060 h1        1 MOL      0.093292
     78 H31        -1.3180   -5.7900    0.1990 h1        1 MOL      0.018522
     79 H32        -2.3310   -3.9450   -0.9170 ho        1 MOL      0.306556
     80 H33        -2.9930   -7.4820   -0.6370 hc        1 MOL      0.113199
     81 H34        -3.3340   -7.3250    1.0390 hc        1 MOL      0.113199
     82 H35        -4.3170   -6.4740    0.0290 hc        1 MOL      0.113199
     83 N9         -0.5240   -3.9370    2.1480 n         1 MOL     -0.630574
     84 C26         0.7390   -3.0450    2.0270 c3        1 MOL      0.169864
     85 C27         1.5370   -3.2540    0.7370 c         1 MOL      0.506013
     86 O15         1.7440   -4.3920    0.3700 o         1 MOL     -0.582651
     87 C28         1.5900   -3.1480    3.3490 c3        1 MOL     -0.025784
     88 C29         1.0780   -2.1600    4.3490 c3        1 MOL      0.187905
     89 C30         3.1430   -3.0340    2.9620 c3        1 MOL     -0.039885
     90 C31         1.7620   -2.3840    5.7660 c3        1 MOL     -0.269640
     91 H36        -0.5310   -4.9080    2.4140 hn        1 MOL      0.300382
     92 H37         0.4500   -2.0040    2.0530 h1        1 MOL      0.022877
     93 H38         1.6120   -4.1390    3.7960 hc        1 MOL      0.025647
     94 H39         0.0030   -2.3270    4.4500 hc        1 MOL     -0.031087
     95 H40         1.2260   -1.1410    3.9770 hc        1 MOL     -0.031087
     96 H41         3.6770   -3.2840    3.8770 hc        1 MOL     -0.000438
     97 H42         3.4580   -3.7790    2.2370 hc        1 MOL     -0.000438
     98 H43         3.3630   -2.0300    2.5870 hc        1 MOL     -0.000438
     99 H44         1.8740   -3.4500    5.9650 hc        1 MOL      0.055706
    100 H45         2.7120   -1.8740    5.9030 hc        1 MOL      0.055706
    101 H46         1.0280   -1.9050    6.4180 hc        1 MOL      0.055706
    102 N10         1.8550   -2.1470    0.0450 n         1 MOL     -0.119686
    103 C32         2.6940   -2.0490   -1.1670 c3        1 MOL      0.010785
    104 C33         4.1200   -1.5580   -0.9220 c         1 MOL      0.327407
    105 O16         4.3830   -1.0490    0.1550 o         1 MOL     -0.291944
    106 C34         1.9300   -1.0950   -2.0920 c3        1 MOL     -0.103697
    107 C35         0.4330   -1.4820   -2.4850 c         1 MOL      0.675096
    108 O17        -0.4780   -1.3460   -1.6420 o         1 MOL     -0.653101
    109 O18         0.1890   -1.8230   -3.6560 o         1 MOL     -0.653101
    110 H47         1.5600   -1.2640    0.4430 hn        1 MOL      0.026971
    111 H48         2.6260   -2.9840   -1.7200 h1        1 MOL      0.063230
    112 H49         2.4330   -1.0310   -3.0640 hc        1 MOL      0.008868
    113 H50         2.0170   -0.1040   -1.6490 hc        1 MOL      0.008868
    114 N11         5.0670   -1.8050   -1.8170 n         1 MOL     -0.538978
    115 C36         6.4660   -1.4840   -1.6270 c3        1 MOL      0.412076
    116 C37         6.8190   -0.0100   -1.0830 c         1 MOL      0.316371
    117 O19         7.4000    0.0280    0.0100 o         1 MOL     -0.528638
    118 C38         7.2420   -1.8520   -2.8940 c3        1 MOL     -0.282276
    119 C39         8.7350   -1.7070   -2.7210 ca        1 MOL      0.285458
    120 C40         9.3870   -2.6620   -1.9520 ca        1 MOL     -0.294287
    121 C41         9.4940   -0.7400   -3.3950 ca        1 MOL     -0.294287
    122 C42        10.7450   -2.4640   -1.6190 ca        1 MOL     -0.037288
    123 C43        10.8310   -0.4540   -2.9970 ca        1 MOL     -0.037288
    124 C44        11.4430   -1.3770   -2.1380 ca        1 MOL     -0.171441
    125 H51         4.7410   -2.2090   -2.6810 hn        1 MOL      0.322524
    126 H52         6.8610   -2.1090   -0.8230 h1        1 MOL      0.003436
    127 H53         6.9160   -1.1650   -3.6750 hc        1 MOL      0.061963
    128 H54         6.9340   -2.8700   -3.0970 hc        1 MOL      0.061963
    129 H55         8.9360   -3.5030   -1.4520 ha        1 MOL      0.148144
    130 H56         9.0160   -0.0650   -4.0880 ha        1 MOL      0.148144
    131 H57        11.1580   -3.1220   -0.8590 ha        1 MOL      0.103183
    132 H58        11.3460    0.4210   -3.3650 ha        1 MOL      0.103183
    133 H59        12.4660   -1.2010   -1.8690 ha        1 MOL      0.103220
    134 N12         6.4810    1.1030   -1.6860 n         1 MOL     -0.144577
    135 C45         6.6560    2.3950   -1.0230 c3        1 MOL     -0.010159
    136 C46         5.8640    2.6070    0.2460 c         1 MOL      0.343354
    137 O20         6.2900    3.4120    1.0750 o         1 MOL     -0.521434
    138 C47         6.1850    3.4070   -2.0170 c3        1 MOL     -0.155803
    139 C48         5.0650    2.6120   -2.7830 c3        1 MOL     -0.017220
    140 C49         5.6800    1.2350   -2.8750 c3        1 MOL     -0.024546
    141 H60         7.7180    2.6090   -0.9250 h1        1 MOL      0.105202
    142 H61         5.9650    4.3810   -1.5860 hc        1 MOL      0.067694
    143 H62         7.0180    3.5110   -2.7260 hc        1 MOL      0.067694
    144 H63         4.2030    2.6660   -2.1220 hc        1 MOL      0.033773
    145 H64         4.8740    2.9510   -3.8030 hc        1 MOL      0.033773
    146 H65         4.8530    0.5120   -2.8650 h1        1 MOL      0.035705
    147 H66         6.2230    1.0390   -3.7910 h1        1 MOL      0.035705
    148 N13         4.8290    1.7960    0.5590 n         1 MOL      0.014174
    149 C50         4.1400    1.8340    1.8740 c3        1 MOL     -0.138416
    150 C51         4.9180    1.0660    2.9890 c         1 MOL      0.472923
    151 O21         5.0720    1.6340    4.0670 o         1 MOL     -0.560615
    152 C52         2.7710    1.2140    1.6850 c3        1 MOL     -0.052502
    153 C53         1.8940    2.0820    0.7010 c3        1 MOL     -0.158672
    154 C54         0.4850    1.4740    0.5100 c         1 MOL      0.636756
    155 O22         0.2500    0.3840    1.0600 o         1 MOL     -0.674726
    156 O23        -0.3440    2.0160   -0.2400 o         1 MOL     -0.674726
    157 H67         4.4430    1.2590   -0.2160 hn        1 MOL      0.209610
    158 H68         4.1570    2.8760    2.1830 h1        1 MOL      0.121895
    159 H69         2.2230    1.2440    2.6190 hc        1 MOL      0.041154
    160 H70         2.8750    0.1660    1.4130 hc        1 MOL      0.041154
    161 H71         2.4800    2.0510   -0.2180 hc        1 MOL      0.043425
    162 H72         1.8020    3.1170    1.0410 hc        1 MOL      0.043425
    163 N14         5.4360   -0.1100    2.7420 n         1 MOL     -0.125770
    164 C55         6.5380   -0.7600    3.5510 c3        1 MOL     -0.223502
    165 H73         7.4930   -0.6170    3.0440 h1        1 MOL      0.092258
    166 H74         6.5810   -0.3030    4.5400 h1        1 MOL      0.092258
    167 H75         6.3370   -1.8260    3.6500 h1        1 MOL      0.092258
    168 H76         5.2570   -0.4870    1.8270 hn        1 MOL      0.117995
    169 Ca1        -2.1170    0.0010   -0.2610 Ca        1 MOL      1.735343
    170 O24        -4.7370   -0.3600    1.2610 oh        1 MOL     -0.751055
    171 H77        -5.0660    0.5350    1.3900 ho        1 MOL      0.363630
    172 H78        -5.1420   -0.8610    1.9660 ho        1 MOL      0.363630
    173 O25        -1.9040    0.1240    2.5290 oh        1 MOL     -0.751055
    174 H79        -1.9730    0.1210    3.4820 ho        1 MOL      0.363630
    175 H80        -0.9630    0.2230    2.3470 ho        1 MOL      0.363630
@<TRIPOS>BOND
     1    1    2 1   
     2    1    4 1   
     3    1    5 1   
     4    1    6 1   
     5    2    3 2   
     6    2    7 1   
     7    7    8 1   
     8    7   15 1   
     9    8    9 1   
    10    8   11 1   
    11    8   16 1   
    12    9   10 2   
    13    9   19 1   
    14   11   12 1   
    15   11   17 1   
    16   11   18 1   
    17   12   13 1   
    18   12   14 1   
    19   19   20 1   
    20   19   24 1   
    21   20   21 1   
    22   20   23 1   
    23   20   25 1   
    24   21   22 2   
    25   21   29 1   
    26   23   26 1   
    27   23   27 1   
    28   23   28 1   
    29   29   30 1   
    30   29   37 1   
    31   30   31 1   
    32   30   33 1   
    33   30   38 1   
    34   31   32 2   
    35   31   41 1   
    36   33   34 1   
    37   33   39 1   
    38   33   40 1   
    39   34   35 1   
    40   34   36 1   
    41   41   42 1   
    42   41   45 1   
    43   42   43 1   
    44   42   46 1   
    45   42   47 1   
    46   43   44 2   
    47   43   48 1   
    48   48   49 1   
    49   48   56 1   
    50   49   50 1   
    51   49   52 1   
    52   49   57 1   
    53   50   51 2   
    54   50   62 1   
    55   52   53 1   
    56   52   58 1   
    57   52   59 1   
    58   53   54 1   
    59   53   55 2   
    60   54   60 1   
    61   54   61 1   
    62   62   63 1   
    63   62   66 1   
    64   63   64 1   
    65   63   67 1   
    66   63   68 1   
    67   64   65 2   
    68   64   69 1   
    69   69   70 1   
    70   69   76 1   
    71   70   71 1   
    72   70   73 1   
    73   70   77 1   
    74   71   72 2   
    75   71   83 1   
    76   73   74 1   
    77   73   75 1   
    78   73   78 1   
    79   74   80 1   
    80   74   81 1   
    81   74   82 1   
    82   75   79 1   
    83   83   84 1   
    84   83   91 1   
    85   84   85 1   
    86   84   87 1   
    87   84   92 1   
    88   85   86 2   
    89   85  102 1   
    90   87   88 1   
    91   87   89 1   
    92   87   93 1   
    93   88   90 1   
    94   88   94 1   
    95   88   95 1   
    96   89   96 1   
    97   89   97 1   
    98   89   98 1   
    99   90   99 1   
   100   90  100 1   
   101   90  101 1   
   102  102  103 1   
   103  102  110 1   
   104  103  104 1   
   105  103  106 1   
   106  103  111 1   
   107  104  105 2   
   108  104  114 1   
   109  106  107 1   
   110  106  112 1   
   111  106  113 1   
   112  107  108 1   
   113  107  109 1   
   114  114  115 1   
   115  114  125 1   
   116  115  116 1   
   117  115  118 1   
   118  115  126 1   
   119  116  117 2   
   120  116  134 1   
   121  118  119 1   
   122  118  127 1   
   123  118  128 1   
   124  119  120 ar  
   125  119  121 ar  
   126  120  122 ar  
   127  120  129 1   
   128  121  123 ar  
   129  121  130 1   
   130  122  124 ar  
   131  122  131 1   
   132  123  124 ar  
   133  123  132 1   
   134  124  133 1   
   135  134  135 1   
   136  134  140 1   
   137  135  136 1   
   138  135  138 1   
   139  135  141 1   
   140  136  137 2   
   141  136  148 1   
   142  138  139 1   
   143  138  142 1   
   144  138  143 1   
   145  139  140 1   
   146  139  144 1   
   147  139  145 1   
   148  140  146 1   
   149  140  147 1   
   150  148  149 1   
   151  148  157 1   
   152  149  150 1   
   153  149  152 1   
   154  149  158 1   
   155  150  151 2   
   156  150  163 1   
   157  152  153 1   
   158  152  159 1   
   159  152  160 1   
   160  153  154 1   
   161  153  161 1   
   162  153  162 1   
   163  154  155 1   
   164  154  156 1   
   165  163  164 1   
   166  163  168 1   
   167  164  165 1   
   168  164  166 1   
   169  164  167 1   
   170  170  171 1   
   171  170  172 1   
   172  173  174 1   
   173  173  175 1   
@<TRIPOS>SUBSTRUCTURE
     1 MOL         1 TEMP              0 ****  ****    0 ROOT
