@<TRIPOS>MOLECULE
MOL
  179   176     1     0     0
SMALL
resp


@<TRIPOS>ATOM
      1 C1          2.1320    2.0440    5.8520 c3        1 MOL     -0.323099
      2 C2          1.4760    1.9560    4.4870 c         1 MOL      0.682534
      3 O1          2.2270    1.8030    3.4660 o         1 MOL     -0.595935
      4 H1          1.3620    2.0580    6.6240 hc        1 MOL      0.089947
      5 H2          2.7790    1.1800    6.0010 hc        1 MOL      0.089947
      6 H3          2.7230    2.9570    5.9140 hc        1 MOL      0.089947
      7 N1          0.1430    2.1290    4.3150 n         1 MOL     -0.522641
      8 C3         -0.6180    2.0970    3.0310 c3        1 MOL      0.051134
      9 C4         -0.5820    3.4150    2.2570 c         1 MOL      0.521827
     10 O2         -1.3660    4.3260    2.6250 o         1 MOL     -0.519588
     11 C5         -2.0780    1.5680    3.3760 c3        1 MOL     -0.044175
     12 C6         -2.8170    1.1980    2.0990 c         1 MOL      0.802496
     13 O3         -2.4100    1.5610    0.9820 o         1 MOL     -0.687997
     14 O4         -3.8570    0.5300    2.3100 o         1 MOL     -0.687997
     15 H4         -0.4530    2.2650    5.1240 hn        1 MOL      0.308394
     16 H5         -0.1560    1.2940    2.4680 h1        1 MOL     -0.086821
     17 H6         -2.6420    2.2500    4.0170 hc        1 MOL      0.014622
     18 H7         -2.0490    0.6240    3.9130 hc        1 MOL      0.014622
     19 N2          0.4220    3.6240    1.4070 n         1 MOL     -0.224884
     20 C7          0.8260    4.9110    0.8320 c3        1 MOL     -0.193353
     21 C8         -0.2930    5.6980    0.1900 c         1 MOL      0.465229
     22 O5         -0.3460    6.9150    0.2910 o         1 MOL     -0.549619
     23 C9          1.9390    4.5030   -0.1880 c3        1 MOL     -0.091523
     24 C10         2.6630    5.8080   -0.7290 c3        1 MOL      0.027036
     25 C11         4.0330    5.4850   -1.3270 c3        1 MOL      0.226734
     26 C12         4.8850    6.7510   -1.7980 c3        1 MOL     -0.119163
     27 N3          4.0540    7.6470   -2.6460 n4        1 MOL     -0.361394
     28 H8          1.0070    2.8460    1.1410 hn        1 MOL      0.228888
     29 H9          1.2670    5.5260    1.6240 h1        1 MOL      0.136060
     30 H10         1.6150    3.8100   -0.9650 hc        1 MOL      0.087048
     31 H11         2.7050    3.9900    0.3820 hc        1 MOL      0.087048
     32 H12         2.8520    6.5140    0.0830 hc        1 MOL     -0.017025
     33 H13         1.9860    6.2340   -1.4750 hc        1 MOL     -0.017025
     34 H14         3.8570    4.8830   -2.2250 hc        1 MOL     -0.029974
     35 H15         4.6990    4.9570   -0.6550 hc        1 MOL     -0.029974
     36 H16         5.8090    6.4030   -2.2460 hx        1 MOL      0.128095
     37 H17         5.1570    7.2790   -0.8780 hx        1 MOL      0.128095
     38 H18         4.3890    8.5910   -2.6350 hn        1 MOL      0.327103
     39 H19         4.0480    7.2830   -3.5910 hn        1 MOL      0.327103
     40 H20         3.0720    7.6920   -2.3950 hn        1 MOL      0.327103
     41 N4         -1.1380    4.9590   -0.5580 n         1 MOL     -0.075434
     42 C13        -2.3100    5.4520   -1.2930 c3        1 MOL     -0.076383
     43 C14        -3.6630    5.2040   -0.5070 c         1 MOL      0.436500
     44 O6         -4.6310    5.8920   -0.7880 o         1 MOL     -0.536901
     45 C15        -2.5200    4.8600   -2.7180 c3        1 MOL     -0.203849
     46 C16        -2.4290    3.3800   -3.0240 c         1 MOL      0.791866
     47 O7         -2.4070    2.9780   -4.2300 o         1 MOL     -0.740263
     48 O8         -2.1020    2.5930   -2.1030 o         1 MOL     -0.740263
     49 H21        -0.8720    4.0470   -0.8830 hn        1 MOL      0.109148
     50 H22        -2.1470    6.5230   -1.4250 h1        1 MOL      0.086181
     51 H23        -1.8080    5.3240   -3.3900 hc        1 MOL      0.064916
     52 H24        -3.5020    5.1520   -3.0670 hc        1 MOL      0.064916
     53 N5         -3.8280    4.2970    0.4350 n         1 MOL      0.085179
     54 C17        -5.0800    4.1390    1.1490 c3        1 MOL     -0.196463
     55 C18        -6.1100    3.3200    0.3830 c         1 MOL      0.610298
     56 O9         -7.1820    3.7810   -0.0160 o         1 MOL     -0.559050
     57 H25        -3.0810    3.7100    0.7660 hn        1 MOL     -0.060748
     58 H26        -5.4310    5.1380    1.4350 h1        1 MOL      0.088114
     59 H27        -4.8150    3.5950    2.0610 h1        1 MOL      0.088114
     60 N6         -5.7910    2.0490    0.1010 n         1 MOL     -0.349315
     61 C19        -6.6680    1.0640   -0.5720 c3        1 MOL      0.019722
     62 C20        -6.7110   -0.3940    0.0030 c         1 MOL      0.213246
     63 O10        -7.1600   -1.3310   -0.6790 o         1 MOL     -0.396207
     64 C21        -6.2820    1.0330   -2.0230 c3        1 MOL     -0.174951
     65 C22        -4.9490    0.2360   -2.3020 c         1 MOL      0.473323
     66 N7         -4.7740   -0.0490   -3.5710 n         1 MOL     -0.626341
     67 O11        -4.0230   -0.0280   -1.5410 o         1 MOL     -0.420527
     68 H28        -4.8580    1.8120    0.3930 hn        1 MOL      0.077466
     69 H29        -7.6470    1.5390   -0.5020 h1        1 MOL      0.139148
     70 H30        -6.1030    2.0290   -2.4480 hc        1 MOL      0.090426
     71 H31        -7.1590    0.5650   -2.4610 hc        1 MOL      0.090426
     72 H32        -5.5600    0.1840   -4.1710 hn        1 MOL      0.321746
     73 H33        -4.0870   -0.7060   -3.9150 hn        1 MOL      0.321746
     74 N8         -6.0910   -0.5410    1.1410 n         1 MOL     -0.087816
     75 C23        -6.2740   -1.7300    2.0300 c3        1 MOL     -0.176762
     76 C24        -5.2690   -2.8760    1.8500 c         1 MOL      0.584522
     77 O12        -5.6500   -3.9590    2.2110 o         1 MOL     -0.540481
     78 H34        -5.5210    0.2040    1.5120 hn        1 MOL      0.205715
     79 H35        -7.3030   -2.0400    1.8540 h1        1 MOL      0.103132
     80 H36        -6.3320   -1.4020    3.0680 h1        1 MOL      0.103132
     81 N9         -4.1480   -2.5920    1.2900 n         1 MOL     -0.350285
     82 C25        -3.1160   -3.5860    0.8710 c3        1 MOL      0.093493
     83 C26        -1.7780   -2.9180    0.6840 c         1 MOL      0.814779
     84 O13        -1.6980   -1.7250    0.5710 o         1 MOL     -0.713715
     85 C27        -3.4590   -4.2490   -0.5170 c3        1 MOL     -0.138069
     86 C28        -4.6730   -5.1040   -0.5990 ca        1 MOL      0.226711
     87 C29        -5.8940   -4.5330   -0.8150 ca        1 MOL     -0.300872
     88 C30        -4.5220   -6.5000   -0.6940 ca        1 MOL     -0.300872
     89 C31        -7.0380   -5.3590   -1.1210 ca        1 MOL     -0.112576
     90 C32        -5.6080   -7.2960   -0.9720 ca        1 MOL     -0.112576
     91 C33        -6.8970   -6.7440   -1.1490 ca        1 MOL      0.183369
     92 O14        -8.0620   -7.5360   -1.3140 oh        1 MOL     -0.430278
     93 H37        -3.9890   -1.6230    1.0480 hn        1 MOL      0.161179
     94 H38        -3.0420   -4.3120    1.6770 h1        1 MOL      0.033660
     95 H39        -2.6390   -4.7870   -0.9710 hc        1 MOL      0.051139
     96 H40        -3.5940   -3.4660   -1.2680 hc        1 MOL      0.051139
     97 H41        -6.0190   -3.4590   -0.8030 ha        1 MOL      0.133322
     98 H42        -3.5970   -6.9700   -0.3920 ha        1 MOL      0.133322
     99 H43        -7.9980   -4.8900   -1.2600 ha        1 MOL      0.116368
    100 H44        -5.4240   -8.3430   -1.1800 ha        1 MOL      0.116368
    101 H45        -7.6940   -8.4120   -1.2190 ho        1 MOL      0.313727
    102 N10        -0.6600   -3.6560    0.9430 n         1 MOL     -0.749811
    103 C34         0.7150   -3.0680    0.9830 c3        1 MOL      0.253309
    104 C35         1.7100   -3.9490    0.1920 c         1 MOL      0.494272
    105 O15         1.6230   -5.1400    0.3720 o         1 MOL     -0.542684
    106 C36         1.0950   -3.0070    2.4490 c3        1 MOL     -0.046121
    107 C37         0.3660   -1.8500    3.1310 c3        1 MOL      0.001760
    108 C38         2.6280   -2.9040    2.6760 c3        1 MOL     -0.099509
    109 C39         0.5800   -1.9640    4.6420 c3        1 MOL     -0.151657
    110 H46        -0.8330   -4.5670    1.3310 hn        1 MOL      0.343265
    111 H47         0.6910   -2.0360    0.6330 h1        1 MOL      0.070175
    112 H48         0.6630   -3.9120    2.8940 hc        1 MOL      0.047887
    113 H49        -0.7060   -1.9220    2.9620 hc        1 MOL      0.058660
    114 H50         0.7190   -0.8790    2.7880 hc        1 MOL      0.058660
    115 H51         2.9820   -2.6910    3.6860 hc        1 MOL      0.026523
    116 H52         3.1160   -3.8560    2.4630 hc        1 MOL      0.026523
    117 H53         3.0450   -2.1080    2.0620 hc        1 MOL      0.026523
    118 H54         1.5950   -1.6150    4.8380 hc        1 MOL      0.032978
    119 H55         0.0450   -1.1750    5.1790 hc        1 MOL      0.032978
    120 H56         0.3840   -2.8840    5.1900 hc        1 MOL      0.032978
    121 N11         2.6480   -3.3330   -0.5320 n         1 MOL     -0.266960
    122 C40         3.7510   -4.0180   -1.2220 c3        1 MOL      0.058788
    123 C41         5.0850   -3.8060   -0.4380 c         1 MOL      0.400584
    124 O16         5.1980   -3.0900    0.5810 o         1 MOL     -0.373645
    125 C42         3.9110   -3.4010   -2.6070 c3        1 MOL     -0.128999
    126 O17         4.2980   -2.0620   -2.5730 oh        1 MOL     -0.392410
    127 H57         2.5450   -2.3290   -0.5700 hn        1 MOL      0.137237
    128 H58         3.4860   -5.0640   -1.3800 h1        1 MOL      0.087559
    129 H59         2.9590   -3.5390   -3.1070 h1        1 MOL      0.085064
    130 H60         4.6000   -3.9790   -3.2230 h1        1 MOL      0.085064
    131 H61         4.1150   -1.6240   -3.4100 ho        1 MOL      0.385644
    132 N12         6.1300   -4.5560   -0.8710 n         1 MOL     -0.402638
    133 C43         7.4460   -4.3510   -0.4450 c3        1 MOL      0.120467
    134 C44         8.0030   -2.9660   -0.7050 c         1 MOL      0.426017
    135 O18         8.7350   -2.4590    0.2610 o         1 MOL     -0.510295
    136 C45         8.2970   -5.3560   -1.3250 c3        1 MOL     -0.317298
    137 H62         5.9440   -5.2640   -1.5660 hn        1 MOL      0.280997
    138 H63         7.5200   -4.6210    0.6050 h1        1 MOL      0.097127
    139 H64         7.9840   -6.3870   -1.1470 hc        1 MOL      0.094253
    140 H65         8.1300   -5.3060   -2.4020 hc        1 MOL      0.094253
    141 H66         9.3460   -5.2430   -1.0470 hc        1 MOL      0.094253
    142 N13         7.5200   -2.3410   -1.7690 n         1 MOL     -0.403597
    143 C46         7.9610   -0.9270   -1.9920 c3        1 MOL      0.147952
    144 C47         7.2470    0.0850   -1.1830 c         1 MOL      0.300930
    145 O19         7.7780    1.1510   -0.8750 o         1 MOL     -0.482251
    146 C48         7.6980   -0.5730   -3.4520 c3        1 MOL     -0.214837
    147 H67         6.9540   -2.9010   -2.3870 hn        1 MOL      0.274172
    148 H68         9.0030   -0.7350   -1.7580 h1        1 MOL      0.103891
    149 H69         8.4130   -1.0120   -4.1550 hc        1 MOL      0.061989
    150 H70         6.6940   -0.9020   -3.7200 hc        1 MOL      0.061989
    151 H71         7.7740    0.4850   -3.7020 hc        1 MOL      0.061989
    152 N14         5.9650   -0.1840   -0.7630 n         1 MOL     -0.030215
    153 C49         5.3160    0.6620    0.2560 c3        1 MOL     -0.169026
    154 C50         6.0830    0.5920    1.5650 c         1 MOL      0.458995
    155 O20         6.2510    1.6980    2.1660 o         1 MOL     -0.536823
    156 C51         3.8100    0.3620    0.2880 c3        1 MOL      0.298526
    157 C52         3.0800    0.9870   -0.8920 c3        1 MOL      0.257434
    158 C53         1.5380    0.6920   -0.9450 c         1 MOL      0.495024
    159 O21         1.1110   -0.2270   -1.6150 o         1 MOL     -0.675088
    160 O22         0.7000    1.5100   -0.4460 o         1 MOL     -0.675088
    161 H72         5.4200   -0.9520   -1.1170 hn        1 MOL      0.002989
    162 H73         5.3900    1.6930   -0.0740 h1        1 MOL      0.085047
    163 H74         3.3450    0.6210    1.2340 hc        1 MOL     -0.066259
    164 H75         3.8370   -0.7250    0.2170 hc        1 MOL     -0.066259
    165 H76         3.5450    0.6660   -1.8280 hc        1 MOL     -0.124877
    166 H77         3.3560    2.0390   -0.8680 hc        1 MOL     -0.124877
    167 N15         6.5600   -0.5980    1.9860 n         1 MOL     -0.089382
    168 C54         7.3930   -0.7170    3.1740 c3        1 MOL     -0.353452
    169 H78         6.7670   -0.6590    4.0640 h1        1 MOL      0.134235
    170 H79         7.9130   -1.6750    3.1590 h1        1 MOL      0.134235
    171 H80         8.1230    0.0920    3.1900 h1        1 MOL      0.134235
    172 H81         6.3800   -1.4030    1.4030 hn        1 MOL      0.146989
    173 Ca1        -1.4270    0.3970   -1.1300 Ca        1 MOL      1.754311
    174 O23        -1.5620   -2.1630   -2.1610 oh        1 MOL     -0.885647
    175 H82        -2.1610   -2.2990   -2.8930 ho        1 MOL      0.415309
    176 H83        -0.8460   -2.7780   -2.3180 ho        1 MOL      0.415309
    177 O24        -1.0810    0.6460   -3.8170 oh        1 MOL     -0.885647
    178 H84        -1.5210    1.4450   -4.1200 ho        1 MOL      0.415309
    179 H85        -0.3150    0.5670   -4.3840 ho        1 MOL      0.415309
@<TRIPOS>BOND
     1    1    2 1   
     2    1    4 1   
     3    1    5 1   
     4    1    6 1   
     5    2    3 2   
     6    2    7 1   
     7    7    8 1   
     8    7   15 1   
     9    8    9 1   
    10    8   11 1   
    11    8   16 1   
    12    9   10 2   
    13    9   19 1   
    14   11   12 1   
    15   11   17 1   
    16   11   18 1   
    17   12   13 1   
    18   12   14 1   
    19   19   20 1   
    20   19   28 1   
    21   20   21 1   
    22   20   23 1   
    23   20   29 1   
    24   21   22 2   
    25   21   41 1   
    26   23   24 1   
    27   23   30 1   
    28   23   31 1   
    29   24   25 1   
    30   24   32 1   
    31   24   33 1   
    32   25   26 1   
    33   25   34 1   
    34   25   35 1   
    35   26   27 1   
    36   26   36 1   
    37   26   37 1   
    38   27   38 1   
    39   27   39 1   
    40   27   40 1   
    41   41   42 1   
    42   41   49 1   
    43   42   43 1   
    44   42   45 1   
    45   42   50 1   
    46   43   44 2   
    47   43   53 1   
    48   45   46 1   
    49   45   51 1   
    50   45   52 1   
    51   46   47 1   
    52   46   48 1   
    53   53   54 1   
    54   53   57 1   
    55   54   55 1   
    56   54   58 1   
    57   54   59 1   
    58   55   56 2   
    59   55   60 1   
    60   60   61 1   
    61   60   68 1   
    62   61   62 1   
    63   61   64 1   
    64   61   69 1   
    65   62   63 2   
    66   62   74 1   
    67   64   65 1   
    68   64   70 1   
    69   64   71 1   
    70   65   66 1   
    71   65   67 2   
    72   66   72 1   
    73   66   73 1   
    74   74   75 1   
    75   74   78 1   
    76   75   76 1   
    77   75   79 1   
    78   75   80 1   
    79   76   77 2   
    80   76   81 1   
    81   81   82 1   
    82   81   93 1   
    83   82   83 1   
    84   82   85 1   
    85   82   94 1   
    86   83   84 2   
    87   83  102 1   
    88   85   86 1   
    89   85   95 1   
    90   85   96 1   
    91   86   87 ar  
    92   86   88 ar  
    93   87   89 ar  
    94   87   97 1   
    95   88   90 ar  
    96   88   98 1   
    97   89   91 ar  
    98   89   99 1   
    99   90   91 ar  
   100   90  100 1   
   101   91   92 1   
   102   92  101 1   
   103  102  103 1   
   104  102  110 1   
   105  103  104 1   
   106  103  106 1   
   107  103  111 1   
   108  104  105 2   
   109  104  121 1   
   110  106  107 1   
   111  106  108 1   
   112  106  112 1   
   113  107  109 1   
   114  107  113 1   
   115  107  114 1   
   116  108  115 1   
   117  108  116 1   
   118  108  117 1   
   119  109  118 1   
   120  109  119 1   
   121  109  120 1   
   122  121  122 1   
   123  121  127 1   
   124  122  123 1   
   125  122  125 1   
   126  122  128 1   
   127  123  124 2   
   128  123  132 1   
   129  125  126 1   
   130  125  129 1   
   131  125  130 1   
   132  126  131 1   
   133  132  133 1   
   134  132  137 1   
   135  133  134 1   
   136  133  136 1   
   137  133  138 1   
   138  134  135 2   
   139  134  142 1   
   140  136  139 1   
   141  136  140 1   
   142  136  141 1   
   143  142  143 1   
   144  142  147 1   
   145  143  144 1   
   146  143  146 1   
   147  143  148 1   
   148  144  145 2   
   149  144  152 1   
   150  146  149 1   
   151  146  150 1   
   152  146  151 1   
   153  152  153 1   
   154  152  161 1   
   155  153  154 1   
   156  153  156 1   
   157  153  162 1   
   158  154  155 2   
   159  154  167 1   
   160  156  157 1   
   161  156  163 1   
   162  156  164 1   
   163  157  158 1   
   164  157  165 1   
   165  157  166 1   
   166  158  159 1   
   167  158  160 1   
   168  167  168 1   
   169  167  172 1   
   170  168  169 1   
   171  168  170 1   
   172  168  171 1   
   173  174  175 1   
   174  174  176 1   
   175  177  178 1   
   176  177  179 1   
@<TRIPOS>SUBSTRUCTURE
     1 MOL         1 TEMP              0 ****  ****    0 ROOT
