@<TRIPOS>MOLECULE
MOL
  189   185     1     0     0
SMALL
resp


@<TRIPOS>ATOM
      1 C1         -0.1100    3.9090   -4.4470 c3        1 MOL     -0.275666
      2 C2          0.4270    3.4090   -3.1070 c         1 MOL      0.565052
      3 O1         -0.1860    3.6530   -2.0420 o         1 MOL     -0.561248
      4 H1         -1.0830    3.4570   -4.6390 hc        1 MOL      0.080877
      5 H2         -0.2130    4.9940   -4.4150 hc        1 MOL      0.080877
      6 H3          0.5820    3.6330   -5.2420 hc        1 MOL      0.080877
      7 N1          1.5890    2.7070   -3.0910 n         1 MOL     -0.533840
      8 C3          2.3290    2.1230   -2.0000 c3        1 MOL      0.250575
      9 C4          3.3590    3.0320   -1.3710 c         1 MOL      0.335621
     10 O2          4.5400    2.8630   -1.5700 o         1 MOL     -0.472758
     11 C5          3.0240    0.8260   -2.4280 c3        1 MOL     -0.075232
     12 C6          3.8590    0.1680   -1.3220 c         1 MOL      0.509714
     13 O3          3.5240    0.3320   -0.0930 o         1 MOL     -0.587159
     14 O4          4.8960   -0.4940   -1.6360 o         1 MOL     -0.587159
     15 H4          1.8800    2.4350   -4.0240 hn        1 MOL      0.298295
     16 H5          1.6890    1.7030   -1.2210 h1        1 MOL      0.033214
     17 H6          3.6200    0.9360   -3.3260 hc        1 MOL      0.002781
     18 H7          2.2510    0.1660   -2.8490 hc        1 MOL      0.002781
     19 N2          2.9000    3.9140   -0.4830 n         1 MOL     -0.279561
     20 C7          3.6370    4.9550    0.2060 c3        1 MOL     -0.024102
     21 C8          4.4850    4.4000    1.3850 c         1 MOL      0.421021
     22 O5          5.1630    5.1820    2.0450 o         1 MOL     -0.582038
     23 C9          2.6570    6.0430    0.7080 c3        1 MOL     -0.134178
     24 C10         1.6970    6.5260   -0.3500 c3        1 MOL      0.343675
     25 C11         0.9530    7.8000    0.0330 c3        1 MOL     -0.194088
     26 C12         1.7780    9.0680   -0.1300 c3        1 MOL     -0.110649
     27 N3          2.1970    9.1930   -1.5240 n4        1 MOL     -0.313684
     28 H8          1.9010    3.8110   -0.3370 hn        1 MOL      0.245303
     29 H9          4.3800    5.3120   -0.5140 h1        1 MOL      0.093075
     30 H10         3.2270    6.9260    0.9860 hc        1 MOL      0.057509
     31 H11         2.1650    5.6810    1.6120 hc        1 MOL      0.057509
     32 H12         0.9760    5.7400   -0.5910 hc        1 MOL     -0.085646
     33 H13         2.2230    6.7260   -1.2900 hc        1 MOL     -0.085646
     34 H14         0.7400    7.7250    1.0990 hc        1 MOL      0.101467
     35 H15        -0.0540    7.8660   -0.3660 hc        1 MOL      0.101467
     36 H16         2.5830    9.0780    0.6030 hx        1 MOL      0.118967
     37 H17         1.0280    9.8000    0.1340 hx        1 MOL      0.118967
     38 H18         2.8730    8.4690   -1.6880 hn        1 MOL      0.325019
     39 H19         1.3960    9.1520   -2.1390 hn        1 MOL      0.325019
     40 H20         2.6330   10.0720   -1.7720 hn        1 MOL      0.325019
     41 N4          4.5940    3.1140    1.5970 n         1 MOL     -0.127889
     42 C13         5.3820    2.5460    2.6830 c3        1 MOL      0.047610
     43 C14         6.4670    1.5640    2.1480 c         1 MOL      0.419497
     44 O6          7.3420    1.1320    2.8770 o         1 MOL     -0.516656
     45 C15         4.4660    1.9690    3.7660 c3        1 MOL     -0.095787
     46 C16         3.5780    0.8110    3.3430 c         1 MOL      0.642730
     47 O7          4.2070   -0.2630    3.0910 o         1 MOL     -0.684017
     48 O8          2.3680    0.9180    3.1670 o         1 MOL     -0.684017
     49 H21         4.1520    2.5070    0.9320 hn        1 MOL      0.044833
     50 H22         6.0190    3.2870    3.1610 h1        1 MOL      0.088074
     51 H23         3.7900    2.7890    4.0170 hc        1 MOL      0.017628
     52 H24         5.1280    1.7440    4.5990 hc        1 MOL      0.017628
     53 N5          6.3410    1.2420    0.8770 n         1 MOL     -0.292479
     54 C17         7.4000    0.4480    0.2530 c3        1 MOL     -0.152143
     55 C18         7.4310   -0.9870    0.7630 c         1 MOL      0.571383
     56 O9          8.5220   -1.5440    0.6360 o         1 MOL     -0.598325
     57 H25         5.5400    1.5470    0.3500 hn        1 MOL      0.264309
     58 H26         8.3540    0.9460    0.4180 h1        1 MOL      0.097397
     59 H27         7.2730    0.2910   -0.8190 h1        1 MOL      0.097397
     60 N6          6.3420   -1.5570    1.3510 n         1 MOL     -0.270193
     61 C19         6.3350   -3.0030    1.6120 c3        1 MOL     -0.152043
     62 C20         6.1550   -3.7980    0.3060 c         1 MOL      0.476688
     63 O10         6.2240   -4.9710    0.4140 o         1 MOL     -0.529105
     64 C21         5.3220   -3.3580    2.7090 c3        1 MOL     -0.153906
     65 C22         3.8520   -2.9740    2.3090 c         1 MOL      0.786424
     66 O11         3.5610   -2.5310    1.1910 o         1 MOL     -0.768312
     67 O12         2.9140   -3.1610    3.1300 o         1 MOL     -0.768312
     68 H28         5.4710   -1.0660    1.5220 hn        1 MOL      0.317869
     69 H29         7.2980   -3.3010    2.0260 h1        1 MOL      0.135414
     70 H30         5.5500   -2.7760    3.6060 hc        1 MOL      0.074623
     71 H31         5.3390   -4.3960    3.0280 hc        1 MOL      0.074623
     72 N7          6.0960   -3.1970   -0.8900 n         1 MOL     -0.182695
     73 C23         5.8760   -3.7860   -2.1850 c3        1 MOL     -0.330089
     74 C24         4.4540   -4.3540   -2.3790 c         1 MOL      0.575558
     75 O13         4.2260   -5.1430   -3.2660 o         1 MOL     -0.556370
     76 H32         6.1430   -2.1940   -0.8150 hn        1 MOL      0.216686
     77 H33         6.6810   -4.5010   -2.2980 h1        1 MOL      0.139905
     78 H34         6.0040   -2.9260   -2.8320 h1        1 MOL      0.139905
     79 N8          3.5220   -3.8880   -1.5350 n         1 MOL     -0.166045
     80 C25         2.1490   -4.3370   -1.7320 c3        1 MOL     -0.269796
     81 C26         1.1930   -3.1610   -1.6910 c         1 MOL      0.564038
     82 O14         1.3760   -2.3540   -0.7600 o         1 MOL     -0.532419
     83 C27         1.7320   -5.3640   -0.7380 c3        1 MOL      0.414143
     84 C28         2.3900   -6.7530   -0.8690 c3        1 MOL     -0.438269
     85 O15         1.8740   -4.8970    0.5460 oh        1 MOL     -0.521843
     86 H35         3.7270   -3.2350   -0.7950 hn        1 MOL      0.190038
     87 H36         1.8950   -4.7910   -2.6960 h1        1 MOL      0.096828
     88 H37         0.6850   -5.6660   -0.8440 h1        1 MOL     -0.005533
     89 H38         2.4380   -4.1320    0.4370 ho        1 MOL      0.361063
     90 H39         3.4600   -6.6650   -0.6620 hc        1 MOL      0.109213
     91 H40         2.0350   -7.4710   -0.1380 hc        1 MOL      0.109213
     92 H41         2.3040   -7.1090   -1.9020 hc        1 MOL      0.109213
     93 N9          0.2030   -3.0960   -2.6090 n         1 MOL     -0.518562
     94 C29        -0.9270   -2.1580   -2.6320 c3        1 MOL      0.114693
     95 C30        -2.0710   -2.9140   -1.9550 c         1 MOL      0.366095
     96 O16        -2.4150   -3.9940   -2.3500 o         1 MOL     -0.536218
     97 C31        -1.3540   -1.8070   -4.0640 c3        1 MOL      0.311960
     98 C32        -0.2300   -1.1220   -4.8320 c3        1 MOL     -0.025127
     99 C33        -2.6190   -0.8970   -3.9620 c3        1 MOL     -0.412178
    100 C34        -0.5430   -1.0330   -6.3440 c3        1 MOL     -0.130224
    101 H42         0.1940   -3.8150   -3.3260 hn        1 MOL      0.303504
    102 H43        -0.7540   -1.2710   -2.0200 h1        1 MOL      0.015625
    103 H44        -1.5810   -2.7880   -4.4710 hc        1 MOL     -0.026400
    104 H45         0.6090   -1.8130   -4.7520 hc        1 MOL      0.018527
    105 H46        -0.0700   -0.1190   -4.4450 hc        1 MOL      0.018527
    106 H47        -2.9540   -0.4920   -4.9190 hc        1 MOL      0.064276
    107 H48        -3.4820   -1.4080   -3.5320 hc        1 MOL      0.064276
    108 H49        -2.3560   -0.0290   -3.3510 hc        1 MOL      0.064276
    109 H50        -1.1370   -0.1660   -6.6290 hc        1 MOL      0.027284
    110 H51         0.4040   -0.9910   -6.8860 hc        1 MOL      0.027284
    111 H52        -1.0010   -1.9490   -6.7170 hc        1 MOL      0.027284
    112 N10        -2.7170   -2.1990   -0.9970 n         1 MOL     -0.094584
    113 C35        -3.9940   -2.5900   -0.3580 c3        1 MOL      0.061520
    114 C36        -5.2080   -1.8680   -1.0320 c         1 MOL      0.273518
    115 O17        -5.0980   -0.9010   -1.8400 o         1 MOL     -0.340554
    116 C37        -3.9890   -2.0660    1.1160 c3        1 MOL      0.024226
    117 C38        -3.1210   -2.7870    2.0950 c3        1 MOL     -0.365890
    118 O18        -3.5380   -0.7480    1.2910 oh        1 MOL     -0.382856
    119 H53        -2.3880   -1.2880   -0.7170 hn        1 MOL      0.352164
    120 H54        -4.2060   -3.6540   -0.5030 h1        1 MOL      0.065523
    121 H55        -4.9930   -1.8850    1.5010 h1        1 MOL      0.037843
    122 H56        -2.6090   -0.6880    1.0690 ho        1 MOL      0.282865
    123 H57        -2.0670   -2.7470    1.8440 hc        1 MOL      0.088730
    124 H58        -3.1510   -2.2710    3.0570 hc        1 MOL      0.088730
    125 H59        -3.5270   -3.7980    2.2040 hc        1 MOL      0.088730
    126 N11        -6.3870   -2.2540   -0.6270 n         1 MOL     -0.219476
    127 C39        -7.6240   -1.4590   -0.9830 c3        1 MOL     -0.405226
    128 C40        -7.6800   -0.0850   -0.3200 c         1 MOL      0.502884
    129 O19        -8.0240    0.9150   -0.9480 o         1 MOL     -0.459380
    130 C41        -8.9500   -2.1450   -0.6830 c3        1 MOL      0.541208
    131 C42        -9.2200   -3.3510   -1.5150 c3        1 MOL     -0.546203
    132 O20        -9.0190   -2.4080    0.6850 oh        1 MOL     -0.649596
    133 H60        -6.5050   -3.0680   -0.0470 hn        1 MOL      0.266933
    134 H61        -7.6310   -1.3780   -2.0690 h1        1 MOL      0.189874
    135 H62        -9.7270   -1.4460   -0.9830 h1        1 MOL     -0.004254
    136 H63        -9.9230   -2.6970    0.8080 ho        1 MOL      0.387045
    137 H64        -9.0120   -3.1780   -2.5710 hc        1 MOL      0.144596
    138 H65        -8.7200   -4.1940   -1.0500 hc        1 MOL      0.144596
    139 H66       -10.3060   -3.4410   -1.5450 hc        1 MOL      0.144596
    140 N12        -7.0260    0.0870    0.8740 n         1 MOL     -0.505283
    141 C43        -6.9140    1.3990    1.6090 c3        1 MOL     -0.028060
    142 C44        -6.0890    2.3260    0.7830 c         1 MOL      0.436186
    143 O21        -6.4260    3.4880    0.6880 o         1 MOL     -0.537476
    144 C45        -6.3480    1.1900    3.0740 c3        1 MOL     -0.145524
    145 C46        -7.2460    0.2930    3.8950 c3        1 MOL      0.257310
    146 C47        -6.8650    0.1420    5.3580 c3        1 MOL     -0.029866
    147 C48        -7.5660   -0.9990    6.0230 c3        1 MOL      0.184320
    148 N13        -7.4090   -1.0230    7.5190 n4        1 MOL     -0.416072
    149 H67        -6.6620   -0.7280    1.3480 hn        1 MOL      0.365698
    150 H68        -7.8730    1.9020    1.6180 h1        1 MOL      0.119153
    151 H69        -6.4040    2.1150    3.6460 hc        1 MOL      0.029828
    152 H70        -5.3240    0.8020    3.0750 hc        1 MOL      0.029828
    153 H71        -7.3000   -0.6900    3.4240 hc        1 MOL     -0.050829
    154 H72        -8.2340    0.7370    3.9910 hc        1 MOL     -0.050829
    155 H73        -7.2220    1.0330    5.8710 hc        1 MOL      0.020272
    156 H74        -5.7850    0.0260    5.4830 hc        1 MOL      0.020272
    157 H75        -7.1600   -1.9310    5.6200 hx        1 MOL      0.029292
    158 H76        -8.6080   -0.9390    5.7360 hx        1 MOL      0.029292
    159 H77        -6.4920   -1.3130    7.8050 hn        1 MOL      0.314789
    160 H78        -7.5650   -0.0870    7.8580 hn        1 MOL      0.314789
    161 H79        -8.0940   -1.6510    7.9090 hn        1 MOL      0.314789
    162 N14        -4.9950    1.8740    0.2610 n         1 MOL     -0.000541
    163 C49        -4.1520    2.6550   -0.6210 c3        1 MOL     -0.118320
    164 C50        -4.7620    2.9800   -1.9830 c         1 MOL      0.444736
    165 O22        -4.6360    4.1130   -2.5000 o         1 MOL     -0.558651
    166 C51        -2.8110    1.8520   -0.8120 c3        1 MOL      0.033000
    167 C52        -1.9540    1.8670    0.4460 c3        1 MOL     -0.409823
    168 C53        -0.8570    0.8000    0.4220 c         1 MOL      1.023447
    169 O23         0.3580    1.1410    0.6160 o         1 MOL     -0.847068
    170 O24        -1.0930   -0.4310    0.3330 o         1 MOL     -0.847068
    171 H80        -4.6860    0.9550    0.5340 hn        1 MOL      0.072587
    172 H81        -3.9100    3.6050   -0.1590 h1        1 MOL      0.082057
    173 H82        -2.1940    2.1850   -1.6480 hc        1 MOL      0.048785
    174 H83        -3.1220    0.8520   -1.1290 hc        1 MOL      0.048785
    175 H84        -2.6220    1.7000    1.2900 hc        1 MOL      0.107310
    176 H85        -1.4750    2.8390    0.5760 hc        1 MOL      0.107310
    177 N15        -5.3680    1.9600   -2.6140 n         1 MOL     -0.078442
    178 C54        -6.2000    2.2050   -3.8140 c3        1 MOL     -0.343253
    179 H86        -7.0000    1.4650   -3.8580 h1        1 MOL      0.126046
    180 H87        -6.6330    3.2040   -3.7580 h1        1 MOL      0.126046
    181 H88        -5.5820    2.1250   -4.7080 h1        1 MOL      0.126046
    182 H89        -5.2270    1.0810   -2.1460 hn        1 MOL      0.141735
    183 Ca1         1.7110   -0.7990    1.4380 Ca        1 MOL      1.693299
    184 O25         0.4380   -3.0340    2.2600 oh        1 MOL     -0.785570
    185 H90         1.1790   -3.5870    2.4940 ho        1 MOL      0.380765
    186 H91        -0.1170   -3.0310    3.0400 ho        1 MOL      0.380765
    187 O26        -0.3240   -0.4130    3.3240 oh        1 MOL     -0.785570
    188 H92        -0.6100   -1.2980    3.5430 ho        1 MOL      0.380765
    189 H93         0.0100   -0.0630    4.1510 ho        1 MOL      0.380765
@<TRIPOS>BOND
     1    1    2 1   
     2    1    4 1   
     3    1    5 1   
     4    1    6 1   
     5    2    3 2   
     6    2    7 1   
     7    7    8 1   
     8    7   15 1   
     9    8    9 1   
    10    8   11 1   
    11    8   16 1   
    12    9   10 2   
    13    9   19 1   
    14   11   12 1   
    15   11   17 1   
    16   11   18 1   
    17   12   13 1   
    18   12   14 1   
    19   19   20 1   
    20   19   28 1   
    21   20   21 1   
    22   20   23 1   
    23   20   29 1   
    24   21   22 2   
    25   21   41 1   
    26   23   24 1   
    27   23   30 1   
    28   23   31 1   
    29   24   25 1   
    30   24   32 1   
    31   24   33 1   
    32   25   26 1   
    33   25   34 1   
    34   25   35 1   
    35   26   27 1   
    36   26   36 1   
    37   26   37 1   
    38   27   38 1   
    39   27   39 1   
    40   27   40 1   
    41   41   42 1   
    42   41   49 1   
    43   42   43 1   
    44   42   45 1   
    45   42   50 1   
    46   43   44 2   
    47   43   53 1   
    48   45   46 1   
    49   45   51 1   
    50   45   52 1   
    51   46   47 1   
    52   46   48 1   
    53   53   54 1   
    54   53   57 1   
    55   54   55 1   
    56   54   58 1   
    57   54   59 1   
    58   55   56 2   
    59   55   60 1   
    60   60   61 1   
    61   60   68 1   
    62   61   62 1   
    63   61   64 1   
    64   61   69 1   
    65   62   63 2   
    66   62   72 1   
    67   64   65 1   
    68   64   70 1   
    69   64   71 1   
    70   65   66 1   
    71   65   67 1   
    72   72   73 1   
    73   72   76 1   
    74   73   74 1   
    75   73   77 1   
    76   73   78 1   
    77   74   75 2   
    78   74   79 1   
    79   79   80 1   
    80   79   86 1   
    81   80   81 1   
    82   80   83 1   
    83   80   87 1   
    84   81   82 2   
    85   81   93 1   
    86   83   84 1   
    87   83   85 1   
    88   83   88 1   
    89   84   90 1   
    90   84   91 1   
    91   84   92 1   
    92   85   89 1   
    93   93   94 1   
    94   93  101 1   
    95   94   95 1   
    96   94   97 1   
    97   94  102 1   
    98   95   96 2   
    99   95  112 1   
   100   97   98 1   
   101   97   99 1   
   102   97  103 1   
   103   98  100 1   
   104   98  104 1   
   105   98  105 1   
   106   99  106 1   
   107   99  107 1   
   108   99  108 1   
   109  100  109 1   
   110  100  110 1   
   111  100  111 1   
   112  112  113 1   
   113  112  119 1   
   114  113  114 1   
   115  113  116 1   
   116  113  120 1   
   117  114  115 2   
   118  114  126 1   
   119  116  117 1   
   120  116  118 1   
   121  116  121 1   
   122  117  123 1   
   123  117  124 1   
   124  117  125 1   
   125  118  122 1   
   126  126  127 1   
   127  126  133 1   
   128  127  128 1   
   129  127  130 1   
   130  127  134 1   
   131  128  129 2   
   132  128  140 1   
   133  130  131 1   
   134  130  132 1   
   135  130  135 1   
   136  131  137 1   
   137  131  138 1   
   138  131  139 1   
   139  132  136 1   
   140  140  141 1   
   141  140  149 1   
   142  141  142 1   
   143  141  144 1   
   144  141  150 1   
   145  142  143 2   
   146  142  162 1   
   147  144  145 1   
   148  144  151 1   
   149  144  152 1   
   150  145  146 1   
   151  145  153 1   
   152  145  154 1   
   153  146  147 1   
   154  146  155 1   
   155  146  156 1   
   156  147  148 1   
   157  147  157 1   
   158  147  158 1   
   159  148  159 1   
   160  148  160 1   
   161  148  161 1   
   162  162  163 1   
   163  162  171 1   
   164  163  164 1   
   165  163  166 1   
   166  163  172 1   
   167  164  165 2   
   168  164  177 1   
   169  166  167 1   
   170  166  173 1   
   171  166  174 1   
   172  167  168 1   
   173  167  175 1   
   174  167  176 1   
   175  168  169 1   
   176  168  170 1   
   177  177  178 1   
   178  177  182 1   
   179  178  179 1   
   180  178  180 1   
   181  178  181 1   
   182  184  185 1   
   183  184  186 1   
   184  187  188 1   
   185  187  189 1   
@<TRIPOS>SUBSTRUCTURE
     1 MOL         1 TEMP              0 ****  ****    0 ROOT
