@<TRIPOS>MOLECULE
MOL
  179   176     1     0     0
SMALL
resp


@<TRIPOS>ATOM
      1 C1          2.0180    1.7820    6.0620 c3        1 MOL     -0.280670
      2 C2          1.4370    1.7900    4.6040 c         1 MOL      0.701841
      3 O1          2.1720    2.0930    3.6550 o         1 MOL     -0.563411
      4 H1          1.2100    1.9480    6.7740 hc        1 MOL      0.071990
      5 H2          2.4860    0.8190    6.2620 hc        1 MOL      0.071990
      6 H3          2.7590    2.5750    6.1630 hc        1 MOL      0.071990
      7 N1          0.1150    1.3200    4.4720 n         1 MOL     -0.644268
      8 C3         -0.6740    1.3790    3.1850 c3        1 MOL      0.077262
      9 C4         -0.7060    2.8310    2.5880 c         1 MOL      0.455573
     10 O2         -1.2910    3.7390    3.1720 o         1 MOL     -0.516921
     11 C5         -2.1030    0.7140    3.3500 c3        1 MOL     -0.187399
     12 C6         -2.9450    0.7140    2.0180 c         1 MOL      0.684144
     13 O3         -2.4980    1.2050    0.9690 o         1 MOL     -0.655415
     14 O4         -4.0200    0.1180    2.0600 o         1 MOL     -0.655415
     15 H4         -0.3470    1.0940    5.3390 hn        1 MOL      0.338790
     16 H5         -0.1420    0.7650    2.4540 h1        1 MOL      0.148047
     17 H6         -2.6500    1.1740    4.1740 hc        1 MOL      0.061190
     18 H7         -1.9150   -0.3000    3.7090 hc        1 MOL      0.061190
     19 N2          0.0650    3.0550    1.4700 n         1 MOL     -0.014287
     20 C7          0.3730    4.3850    0.9260 c3        1 MOL     -0.233390
     21 C8         -0.8600    4.9990    0.2590 c         1 MOL      0.429801
     22 O5         -1.0290    6.2160    0.5050 o         1 MOL     -0.539985
     23 C9          1.6380    4.3750   -0.0640 c3        1 MOL      0.017512
     24 C10         2.0470    5.7880   -0.5620 c3        1 MOL     -0.409790
     25 C11         3.3090    5.6640   -1.3780 c3        1 MOL      0.197599
     26 C12         3.6230    7.1390   -1.7430 c3        1 MOL     -0.129867
     27 N3          4.9110    7.1920   -2.5030 n4        1 MOL     -0.163755
     28 H8          0.6610    2.3010    1.1480 hn        1 MOL      0.015669
     29 H9          0.6720    4.9900    1.7880 h1        1 MOL      0.135190
     30 H10         1.4470    3.8260   -0.9870 hc        1 MOL      0.129616
     31 H11         2.4300    3.9180    0.5290 hc        1 MOL      0.129616
     32 H12         2.3470    6.3060    0.3540 hc        1 MOL      0.139242
     33 H13         1.2980    6.2680   -1.1780 hc        1 MOL      0.139242
     34 H14         3.1740    5.1040   -2.2990 hc        1 MOL     -0.000806
     35 H15         4.0810    5.1850   -0.7720 hc        1 MOL     -0.000806
     36 H16         3.8490    7.6230   -0.7950 hx        1 MOL      0.122502
     37 H17         2.8040    7.5340   -2.3330 hx        1 MOL      0.122502
     38 H18         5.7000    6.7060   -2.1120 hn        1 MOL      0.275164
     39 H19         4.8360    6.7800   -3.4270 hn        1 MOL      0.275164
     40 H20         5.2470    8.1380   -2.6320 hn        1 MOL      0.275164
     41 N4         -1.6290    4.3200   -0.6230 n         1 MOL     -0.305983
     42 C13        -2.8090    4.8230   -1.3610 c3        1 MOL      0.134006
     43 C14        -4.1250    4.5360   -0.5940 c         1 MOL      0.409727
     44 O6         -5.1600    5.0100   -1.0280 o         1 MOL     -0.551241
     45 C15        -2.9380    4.2750   -2.7630 c3        1 MOL     -0.204893
     46 C16        -3.1110    2.7630   -2.9100 c         1 MOL      0.802425
     47 O7         -3.1950    2.2210   -4.0280 o         1 MOL     -0.723434
     48 O8         -3.1110    2.0090   -1.9310 o         1 MOL     -0.723434
     49 H21        -1.3860    3.3830   -0.8800 hn        1 MOL      0.240851
     50 H22        -2.7160    5.9060   -1.4130 h1        1 MOL      0.054538
     51 H23        -2.0380    4.5690   -3.2990 hc        1 MOL      0.045289
     52 H24        -3.7610    4.7810   -3.2600 hc        1 MOL      0.045289
     53 N5         -4.1110    3.6740    0.3860 n         1 MOL     -0.124547
     54 C17        -5.3390    3.3510    1.1270 c3        1 MOL     -0.281488
     55 C18        -6.2670    2.3700    0.5380 c         1 MOL      0.616193
     56 O9         -7.3600    2.1540    1.0680 o         1 MOL     -0.587140
     57 H25        -3.2280    3.1780    0.4630 hn        1 MOL      0.134342
     58 H26        -5.8750    4.2470    1.4160 h1        1 MOL      0.130894
     59 H27        -4.9250    2.8550    2.0130 h1        1 MOL      0.130894
     60 N6         -5.7940    1.5910   -0.4300 n         1 MOL     -0.310666
     61 C19        -6.5960    0.5760   -1.0880 c3        1 MOL     -0.083848
     62 C20        -6.8670   -0.6820   -0.2710 c         1 MOL      0.429632
     63 O10        -7.7250   -1.5420   -0.5910 o         1 MOL     -0.580591
     64 C21        -6.1370    0.1550   -2.5550 c3        1 MOL     -0.286340
     65 C22        -5.0020   -0.8310   -2.4950 c         1 MOL      0.749997
     66 N7         -4.6990   -1.6710   -3.5000 n         1 MOL     -0.722629
     67 O11        -4.2370   -0.8830   -1.5640 o         1 MOL     -0.702203
     68 H28        -4.8430    1.7040   -0.7430 hn        1 MOL      0.256487
     69 H29        -7.6080    0.8990   -1.3210 h1        1 MOL      0.126281
     70 H30        -5.9160    1.0750   -3.0970 hc        1 MOL      0.121354
     71 H31        -6.9810   -0.2460   -3.1150 hc        1 MOL      0.121354
     72 H32        -5.3520   -1.7970   -4.2610 hn        1 MOL      0.321583
     73 H33        -4.0570   -2.3930   -3.1980 hn        1 MOL      0.321583
     74 N8         -6.1680   -0.7640    0.8490 n         1 MOL     -0.078470
     75 C23        -6.3970   -1.8330    1.8990 c3        1 MOL     -0.235268
     76 C24        -5.3150   -2.8780    2.1880 c         1 MOL      0.580574
     77 O12        -5.6820   -3.9010    2.7550 o         1 MOL     -0.579494
     78 H34        -5.4920   -0.0450    1.0470 hn        1 MOL      0.225721
     79 H35        -7.3010   -2.3770    1.6450 h1        1 MOL      0.114145
     80 H36        -6.5150   -1.4240    2.9010 h1        1 MOL      0.114145
     81 N9         -4.1030   -2.6650    1.7250 n         1 MOL     -0.206918
     82 C25        -2.9290   -3.6380    1.7840 c3        1 MOL     -0.040407
     83 C26        -1.5480   -2.9710    1.5800 c         1 MOL      0.662446
     84 O13        -1.4510   -1.8870    0.9010 o         1 MOL     -0.649758
     85 C27        -3.2140   -4.7850    0.8360 c3        1 MOL     -0.088600
     86 C28        -3.1990   -4.5970   -0.6510 ca        1 MOL      0.082509
     87 C29        -1.9780   -4.4850   -1.3980 ca        1 MOL     -0.160040
     88 C30        -4.3960   -4.7290   -1.3840 ca        1 MOL     -0.160040
     89 C31        -1.9410   -4.4830   -2.8100 ca        1 MOL     -0.268810
     90 C32        -4.3640   -4.7460   -2.7690 ca        1 MOL     -0.268810
     91 C33        -3.1540   -4.6770   -3.4920 ca        1 MOL      0.364599
     92 O14        -3.1550   -4.8380   -4.8140 oh        1 MOL     -0.523764
     93 H37        -3.8410   -1.7260    1.4670 hn        1 MOL      0.093919
     94 H38        -2.8480   -4.0740    2.7790 h1        1 MOL      0.054848
     95 H39        -4.1450   -5.1420    1.2870 hc        1 MOL      0.048137
     96 H40        -2.4730   -5.5750    0.9110 hc        1 MOL      0.048137
     97 H41        -1.0220   -4.4230   -0.8950 ha        1 MOL      0.166764
     98 H42        -5.2760   -4.9460   -0.7860 ha        1 MOL      0.166764
     99 H43        -1.0200   -4.4800   -3.3750 ha        1 MOL      0.131302
    100 H44        -5.2840   -4.9200   -3.3110 ha        1 MOL      0.131302
    101 H45        -4.0570   -4.8360   -5.1370 ho        1 MOL      0.389360
    102 N10        -0.5130   -3.5710    2.0820 n         1 MOL     -0.567056
    103 C34         0.8950   -3.1830    2.0200 c3        1 MOL      0.083461
    104 C35         1.5860   -3.9090    0.8400 c         1 MOL      0.500819
    105 O15         1.3060   -5.0510    0.4930 o         1 MOL     -0.535820
    106 C36         1.5530   -3.5440    3.3580 c3        1 MOL      0.002402
    107 C37         0.6740   -3.3210    4.6030 c3        1 MOL      0.065675
    108 C38         2.9140   -2.8930    3.4540 c3        1 MOL     -0.298855
    109 C39        -0.0600   -1.9830    4.6340 c3        1 MOL     -0.052305
    110 H46        -0.7180   -4.3610    2.6750 hn        1 MOL      0.334321
    111 H47         0.9210   -2.1050    1.8460 h1        1 MOL      0.108881
    112 H48         1.7660   -4.6030    3.1840 hc        1 MOL      0.031796
    113 H49         1.2010   -3.5790    5.5230 hc        1 MOL     -0.008287
    114 H50        -0.0310   -4.1480    4.5140 hc        1 MOL     -0.008287
    115 H51         2.7540   -1.8220    3.5050 hc        1 MOL      0.074358
    116 H52         3.4800   -3.2180    4.3350 hc        1 MOL      0.074358
    117 H53         3.5760   -3.0580    2.6000 hc        1 MOL      0.074358
    118 H54         0.5320   -1.2740    4.0610 hc        1 MOL      0.018761
    119 H55        -1.0500   -2.1840    4.2240 hc        1 MOL      0.018761
    120 H56        -0.3480   -1.5680    5.5940 hc        1 MOL      0.018761
    121 N11         2.6050   -3.2220    0.2860 n         1 MOL     -0.117615
    122 C40         3.6060   -3.7830   -0.6310 c3        1 MOL     -0.044281
    123 C41         5.0490   -3.2170   -0.3580 c         1 MOL      0.463929
    124 O16         5.2260   -2.3320    0.5140 o         1 MOL     -0.442605
    125 C42         3.1690   -3.5710   -2.0790 c3        1 MOL     -0.107892
    126 O17         2.9030   -2.2120   -2.3140 oh        1 MOL     -0.402634
    127 H57         2.7950   -2.2790    0.5940 hn        1 MOL      0.160944
    128 H58         3.6090   -4.8600   -0.4440 h1        1 MOL      0.083764
    129 H59         2.2920   -4.1980   -2.2180 h1        1 MOL      0.085927
    130 H60         3.9330   -3.9300   -2.7770 h1        1 MOL      0.085927
    131 H61         2.9160   -2.0770   -3.2650 ho        1 MOL      0.355365
    132 N12         6.0010   -3.7060   -1.1660 n         1 MOL     -0.410326
    133 C43         7.4130   -3.3380   -1.0730 c3        1 MOL      0.129095
    134 C44         7.8370   -1.8400   -1.0960 c         1 MOL      0.331087
    135 O18         8.5820   -1.3170   -0.2330 o         1 MOL     -0.464622
    136 C45         8.3450   -4.2170   -1.9600 c3        1 MOL     -0.325422
    137 H62         5.7460   -4.4590   -1.7900 hn        1 MOL      0.285526
    138 H63         7.6840   -3.6950   -0.0840 h1        1 MOL      0.072772
    139 H64         8.1870   -3.8420   -2.9730 hc        1 MOL      0.106742
    140 H65         9.4120   -4.0780   -1.7540 hc        1 MOL      0.106742
    141 H66         8.2360   -5.2880   -1.8330 hc        1 MOL      0.106742
    142 N13         7.3470   -1.1990   -2.1520 n         1 MOL     -0.231166
    143 C46         7.4740    0.2540   -2.4700 c3        1 MOL      0.063856
    144 C47         6.7680    1.2380   -1.4850 c         1 MOL      0.356093
    145 O19         7.2860    2.2920   -1.1930 o         1 MOL     -0.501893
    146 C48         6.9950    0.4800   -3.8900 c3        1 MOL     -0.265334
    147 H67         6.6760   -1.7380   -2.6970 hn        1 MOL      0.222321
    148 H68         8.5270    0.5360   -2.5180 h1        1 MOL      0.108290
    149 H69         5.9280    0.3030   -3.9950 hc        1 MOL      0.076235
    150 H70         7.1910    1.5180   -4.1660 hc        1 MOL      0.076235
    151 H71         7.5720   -0.1710   -4.5400 hc        1 MOL      0.076235
    152 N14         5.6280    0.8080   -0.9180 n         1 MOL     -0.140376
    153 C49         4.8750    1.3600    0.2150 c3        1 MOL     -0.274068
    154 C50         5.5880    1.1710    1.5930 c         1 MOL      0.618430
    155 O20         5.4010    1.9790    2.4640 o         1 MOL     -0.540082
    156 C51         3.4280    0.7830    0.2370 c3        1 MOL     -0.044832
    157 C52         2.5930    1.0460   -0.9970 c3        1 MOL      0.123399
    158 C53         1.0990    0.9830   -0.7660 c         1 MOL      0.670676
    159 O21         0.3220    1.6360   -1.4180 o         1 MOL     -0.810620
    160 O22         0.5660    0.3370    0.1790 o         1 MOL     -0.810620
    161 H72         5.3040   -0.0700   -1.2930 hn        1 MOL      0.120074
    162 H73         4.7620    2.4300    0.0300 h1        1 MOL      0.113426
    163 H74         2.9900    1.3460    1.0620 hc        1 MOL      0.060293
    164 H75         3.5030   -0.2760    0.5070 hc        1 MOL      0.060293
    165 H76         2.7060    0.3450   -1.8320 hc        1 MOL     -0.071328
    166 H77         2.7870    2.0650   -1.3090 hc        1 MOL     -0.071328
    167 N15         6.4280    0.1530    1.7620 n         1 MOL     -0.215995
    168 C54         7.2520   -0.1110    2.9480 c3        1 MOL     -0.236426
    169 H78         7.1910    0.7400    3.6270 h1        1 MOL      0.105687
    170 H79         6.8880   -1.0050    3.4530 h1        1 MOL      0.105687
    171 H80         8.2890   -0.2600    2.6450 h1        1 MOL      0.105687
    172 H81         6.6500   -0.5220    1.0420 hn        1 MOL      0.207780
    173 Ca1        -1.6930   -0.0630   -1.0740 Ca        1 MOL      1.840896
    174 O23        -1.9310   -0.0400   -3.7680 oh        1 MOL     -0.883201
    175 H82        -1.3590   -0.3200   -4.4890 ho        1 MOL      0.400807
    176 H83        -2.4220    0.7010   -4.1380 ho        1 MOL      0.400807
    177 O24         0.1570   -1.8700   -2.2070 oh        1 MOL     -0.883201
    178 H84         1.0580   -1.5440   -2.2210 ho        1 MOL      0.400807
    179 H85         0.0610   -2.3260   -3.0490 ho        1 MOL      0.400807
@<TRIPOS>BOND
     1    1    2 1   
     2    1    4 1   
     3    1    5 1   
     4    1    6 1   
     5    2    3 2   
     6    2    7 1   
     7    7    8 1   
     8    7   15 1   
     9    8    9 1   
    10    8   11 1   
    11    8   16 1   
    12    9   10 2   
    13    9   19 1   
    14   11   12 1   
    15   11   17 1   
    16   11   18 1   
    17   12   13 1   
    18   12   14 1   
    19   19   20 1   
    20   19   28 1   
    21   20   21 1   
    22   20   23 1   
    23   20   29 1   
    24   21   22 2   
    25   21   41 1   
    26   23   24 1   
    27   23   30 1   
    28   23   31 1   
    29   24   25 1   
    30   24   32 1   
    31   24   33 1   
    32   25   26 1   
    33   25   34 1   
    34   25   35 1   
    35   26   27 1   
    36   26   36 1   
    37   26   37 1   
    38   27   38 1   
    39   27   39 1   
    40   27   40 1   
    41   41   42 1   
    42   41   49 1   
    43   42   43 1   
    44   42   45 1   
    45   42   50 1   
    46   43   44 2   
    47   43   53 1   
    48   45   46 1   
    49   45   51 1   
    50   45   52 1   
    51   46   47 1   
    52   46   48 1   
    53   53   54 1   
    54   53   57 1   
    55   54   55 1   
    56   54   58 1   
    57   54   59 1   
    58   55   56 2   
    59   55   60 1   
    60   60   61 1   
    61   60   68 1   
    62   61   62 1   
    63   61   64 1   
    64   61   69 1   
    65   62   63 2   
    66   62   74 1   
    67   64   65 1   
    68   64   70 1   
    69   64   71 1   
    70   65   66 1   
    71   65   67 2   
    72   66   72 1   
    73   66   73 1   
    74   74   75 1   
    75   74   78 1   
    76   75   76 1   
    77   75   79 1   
    78   75   80 1   
    79   76   77 2   
    80   76   81 1   
    81   81   82 1   
    82   81   93 1   
    83   82   83 1   
    84   82   85 1   
    85   82   94 1   
    86   83   84 2   
    87   83  102 1   
    88   85   86 1   
    89   85   95 1   
    90   85   96 1   
    91   86   87 ar  
    92   86   88 ar  
    93   87   89 ar  
    94   87   97 1   
    95   88   90 ar  
    96   88   98 1   
    97   89   91 ar  
    98   89   99 1   
    99   90   91 ar  
   100   90  100 1   
   101   91   92 1   
   102   92  101 1   
   103  102  103 1   
   104  102  110 1   
   105  103  104 1   
   106  103  106 1   
   107  103  111 1   
   108  104  105 2   
   109  104  121 1   
   110  106  107 1   
   111  106  108 1   
   112  106  112 1   
   113  107  109 1   
   114  107  113 1   
   115  107  114 1   
   116  108  115 1   
   117  108  116 1   
   118  108  117 1   
   119  109  118 1   
   120  109  119 1   
   121  109  120 1   
   122  121  122 1   
   123  121  127 1   
   124  122  123 1   
   125  122  125 1   
   126  122  128 1   
   127  123  124 2   
   128  123  132 1   
   129  125  126 1   
   130  125  129 1   
   131  125  130 1   
   132  126  131 1   
   133  132  133 1   
   134  132  137 1   
   135  133  134 1   
   136  133  136 1   
   137  133  138 1   
   138  134  135 2   
   139  134  142 1   
   140  136  139 1   
   141  136  140 1   
   142  136  141 1   
   143  142  143 1   
   144  142  147 1   
   145  143  144 1   
   146  143  146 1   
   147  143  148 1   
   148  144  145 2   
   149  144  152 1   
   150  146  149 1   
   151  146  150 1   
   152  146  151 1   
   153  152  153 1   
   154  152  161 1   
   155  153  154 1   
   156  153  156 1   
   157  153  162 1   
   158  154  155 2   
   159  154  167 1   
   160  156  157 1   
   161  156  163 1   
   162  156  164 1   
   163  157  158 1   
   164  157  165 1   
   165  157  166 1   
   166  158  159 1   
   167  158  160 1   
   168  167  168 1   
   169  167  172 1   
   170  168  169 1   
   171  168  170 1   
   172  168  171 1   
   173  174  175 1   
   174  174  176 1   
   175  177  178 1   
   176  177  179 1   
@<TRIPOS>SUBSTRUCTURE
     1 MOL         1 TEMP              0 ****  ****    0 ROOT
