@<TRIPOS>MOLECULE
MOL
  175   173     1     0     0
SMALL
resp


@<TRIPOS>ATOM
      1 C1          0.1420    4.5700    5.2520 c3        1 MOL     -0.368628
      2 C2         -0.3610    4.2410    3.8430 c         1 MOL      0.735934
      3 O1          0.3190    4.3680    2.8560 o         1 MOL     -0.522792
      4 H1         -0.5110    4.1020    5.9890 hc        1 MOL      0.086618
      5 H2          1.1560    4.1900    5.3740 hc        1 MOL      0.086618
      6 H3          0.1380    5.6500    5.3970 hc        1 MOL      0.086618
      7 N1         -1.6850    3.9650    3.7450 n         1 MOL     -0.683409
      8 C3         -2.4170    3.7370    2.4910 c3        1 MOL      0.187681
      9 C4         -2.4600    4.9380    1.5090 c         1 MOL      0.648629
     10 O2         -2.2080    6.1100    1.8340 o         1 MOL     -0.571727
     11 C5         -3.7850    3.1350    2.8400 c3        1 MOL     -0.315018
     12 C6         -4.4910    2.5210    1.6490 c         1 MOL      0.668899
     13 O3         -3.7950    1.8280    0.8550 o         1 MOL     -0.632918
     14 O4         -5.7060    2.7550    1.4920 o         1 MOL     -0.632918
     15 H4         -2.2290    3.8990    4.5920 hn        1 MOL      0.333968
     16 H5         -1.8540    2.9620    1.9560 h1        1 MOL      0.024548
     17 H6         -4.3280    3.8970    3.3960 hc        1 MOL      0.056163
     18 H7         -3.5760    2.3100    3.5180 hc        1 MOL      0.056163
     19 N2         -2.8060    4.6340    0.2510 n         1 MOL     -0.586796
     20 C7         -2.8910    5.5680   -0.8230 c3        1 MOL      0.173028
     21 C8         -3.8200    5.0160   -1.9360 c         1 MOL      0.578472
     22 O5         -4.2240    5.7720   -2.8370 o         1 MOL     -0.596487
     23 C9         -1.4720    5.7570   -1.3070 c3        1 MOL     -0.271639
     24 H8         -2.8220    3.6350    0.1150 hn        1 MOL      0.357169
     25 H9         -3.3020    6.5410   -0.5660 h1        1 MOL      0.048815
     26 H10        -1.4530    6.4530   -2.1510 hc        1 MOL      0.076289
     27 H11        -0.8050    6.0070   -0.4830 hc        1 MOL      0.076289
     28 H12        -1.0610    4.8020   -1.6380 hc        1 MOL      0.076289
     29 N3         -4.3060    3.7840   -1.8540 n         1 MOL     -0.473945
     30 C10        -4.8630    3.0360   -2.9910 c3        1 MOL      0.148295
     31 C11        -5.9880    2.0460   -2.5830 c         1 MOL      0.381624
     32 O6         -6.6570    1.4600   -3.4160 o         1 MOL     -0.561620
     33 C12        -3.7200    2.2610   -3.6320 c3        1 MOL     -0.181113
     34 C13        -3.0120    1.2740   -2.6940 c         1 MOL      0.721859
     35 O7         -3.6910    0.6850   -1.8280 o         1 MOL     -0.710972
     36 O8         -1.7840    1.0190   -2.8660 o         1 MOL     -0.710972
     37 H13        -3.9930    3.2610   -1.0510 hn        1 MOL      0.220379
     38 H14        -5.3050    3.6740   -3.7590 h1        1 MOL      0.083860
     39 H15        -3.1130    3.1120   -3.9490 hc        1 MOL      0.043517
     40 H16        -4.0470    1.8060   -4.5760 hc        1 MOL      0.043517
     41 N4         -6.2970    1.8980   -1.2670 n         1 MOL     -0.240714
     42 C14        -7.4220    1.0570   -0.7970 c3        1 MOL     -0.089632
     43 C15        -7.3640   -0.4630   -1.0640 c         1 MOL      0.432525
     44 O9         -8.3610   -1.1190   -0.8210 o         1 MOL     -0.599362
     45 H17        -5.7880    2.4370   -0.5810 hn        1 MOL      0.173361
     46 H18        -8.3360    1.5160   -1.1600 h1        1 MOL      0.083203
     47 H19        -7.5910    1.1250    0.2770 h1        1 MOL      0.083203
     48 N5         -6.3090   -0.9330   -1.6580 n         1 MOL     -0.106655
     49 C16        -6.1330   -2.3920   -2.0340 c3        1 MOL     -0.265577
     50 C17        -5.9210   -3.5310   -0.9370 c         1 MOL      0.505958
     51 O10        -5.7110   -4.7080   -1.1780 o         1 MOL     -0.475261
     52 C18        -5.0810   -2.4330   -3.1160 c3        1 MOL     -0.039188
     53 C19        -3.6640   -2.4380   -2.5550 c         1 MOL      0.588192
     54 N6         -2.6690   -2.8530   -3.3690 n         1 MOL     -0.682777
     55 O11        -3.4170   -2.0790   -1.4180 o         1 MOL     -0.517771
     56 H20        -5.5460   -0.3390   -1.9620 hn        1 MOL      0.243445
     57 H21        -7.0870   -2.7310   -2.4280 h1        1 MOL      0.147435
     58 H22        -5.2680   -1.6720   -3.8760 hc        1 MOL      0.047051
     59 H23        -5.1850   -3.3350   -3.7350 hc        1 MOL      0.047051
     60 H24        -2.7000   -3.0090   -4.3670 hn        1 MOL      0.338488
     61 H25        -1.7650   -2.7120   -2.9400 hn        1 MOL      0.338488
     62 N7         -6.0710   -3.1040    0.3820 n         1 MOL     -0.307108
     63 C20        -6.0720   -4.0600    1.5430 c3        1 MOL     -0.104733
     64 C21        -4.6800   -4.5950    1.9430 c         1 MOL      0.533437
     65 O12        -4.5640   -5.6040    2.6570 o         1 MOL     -0.605447
     66 H26        -6.0560   -2.1210    0.6290 hn        1 MOL      0.246821
     67 H27        -6.8480   -4.8100    1.4390 h1        1 MOL      0.073948
     68 H28        -6.3130   -3.4030    2.3790 h1        1 MOL      0.073948
     69 N8         -3.5890   -3.9990    1.4930 n         1 MOL     -0.156767
     70 C22        -2.1910   -4.4490    1.6320 c3        1 MOL     -0.089899
     71 C23        -1.3540   -3.2140    1.8520 c         1 MOL      0.306750
     72 O13        -1.6210   -2.2610    1.1000 o         1 MOL     -0.369287
     73 C24        -1.6360   -5.2150    0.4140 c3        1 MOL      0.469063
     74 C25        -1.9980   -6.6800    0.4620 c3        1 MOL     -0.440812
     75 O14        -2.2660   -4.7510   -0.8220 oh        1 MOL     -0.543596
     76 H29        -3.7010   -3.1530    0.9440 hn        1 MOL      0.119351
     77 H30        -2.1280   -5.1050    2.5030 h1        1 MOL      0.069207
     78 H31        -0.5460   -5.1670    0.3700 h1        1 MOL      0.010981
     79 H32        -2.3280   -3.7890   -0.7710 ho        1 MOL      0.221002
     80 H33        -3.0620   -6.7940    0.6900 hc        1 MOL      0.107951
     81 H34        -1.7130   -7.1390   -0.4860 hc        1 MOL      0.107951
     82 H35        -1.3690   -7.2370    1.1570 hc        1 MOL      0.107951
     83 N9         -0.2780   -3.3330    2.5400 n         1 MOL     -0.340179
     84 C26         0.9290   -2.5230    2.3840 c3        1 MOL     -0.067124
     85 C27         1.6570   -2.9180    1.0900 c         1 MOL      0.393602
     86 O15         2.1690   -4.0710    1.0530 o         1 MOL     -0.581540
     87 C28         1.8310   -2.6280    3.6240 c3        1 MOL      0.142673
     88 C29         1.1500   -1.9040    4.7990 c3        1 MOL      0.059178
     89 C30         3.2460   -2.0890    3.3680 c3        1 MOL     -0.172383
     90 C31         1.7020   -2.0830    6.1520 c3        1 MOL     -0.188735
     91 H36        -0.1120   -4.1250    3.1460 hn        1 MOL      0.272968
     92 H37         0.6770   -1.4820    2.1770 h1        1 MOL      0.028638
     93 H38         1.8640   -3.6900    3.8850 hc        1 MOL     -0.003855
     94 H39         0.0780   -2.1030    4.8550 hc        1 MOL      0.000729
     95 H40         1.2270   -0.8340    4.6090 hc        1 MOL      0.000729
     96 H41         3.7880   -2.1200    4.3190 hc        1 MOL      0.028699
     97 H42         3.6360   -2.7810    2.6280 hc        1 MOL      0.028699
     98 H43         3.4220   -1.1270    2.8920 hc        1 MOL      0.028699
     99 H44         0.9470   -1.7410    6.8630 hc        1 MOL      0.037791
    100 H45         2.0000   -3.1060    6.3930 hc        1 MOL      0.037791
    101 H46         2.6090   -1.4990    6.2470 hc        1 MOL      0.037791
    102 N10         1.8310   -2.0430    0.1340 n         1 MOL     -0.053561
    103 C32         2.6110   -2.0750   -1.0690 c3        1 MOL     -0.099603
    104 C33         3.9970   -1.5960   -0.6460 c         1 MOL      0.574409
    105 O16         4.1420   -0.9140    0.4010 o         1 MOL     -0.332366
    106 C34         1.9090   -1.2170   -2.1570 c3        1 MOL     -0.205202
    107 C35         0.4920   -1.6720   -2.4980 c         1 MOL      0.789839
    108 O17        -0.3670   -1.5440   -1.6540 o         1 MOL     -0.697548
    109 O18         0.3400   -2.1510   -3.6460 o         1 MOL     -0.697548
    110 H47         1.4210   -1.1570    0.3890 hn        1 MOL      0.131738
    111 H48         2.6780   -3.1170   -1.3770 h1        1 MOL      0.090991
    112 H49         2.3760   -1.0490   -3.1260 hc        1 MOL      0.050132
    113 H50         1.8610   -0.2160   -1.7110 hc        1 MOL      0.050132
    114 N11         5.0180   -1.8150   -1.4950 n         1 MOL     -0.735496
    115 C36         6.3910   -1.5090   -1.1490 c3        1 MOL      0.483466
    116 C37         6.5840    0.0320   -0.9850 c         1 MOL      0.248200
    117 O19         7.1630    0.4270    0.0430 o         1 MOL     -0.482824
    118 C38         7.3250   -2.2850   -2.1780 c3        1 MOL     -0.316820
    119 C39         8.7960   -1.9010   -1.9840 ca        1 MOL      0.210443
    120 C40         9.3870   -2.0440   -0.7030 ca        1 MOL     -0.266371
    121 C41         9.4940   -1.4170   -3.1130 ca        1 MOL     -0.266371
    122 C42        10.7580   -1.5960   -0.4850 ca        1 MOL     -0.017963
    123 C43        10.8370   -0.9550   -2.9110 ca        1 MOL     -0.017963
    124 C44        11.4410   -1.0610   -1.6210 ca        1 MOL     -0.244631
    125 H51         4.9100   -1.8550   -2.4930 hn        1 MOL      0.332064
    126 H52         6.4780   -1.9030   -0.1340 h1        1 MOL      0.028232
    127 H53         7.0290   -2.0630   -3.2060 hc        1 MOL      0.097541
    128 H54         7.2250   -3.3710   -2.0670 hc        1 MOL      0.097541
    129 H55         8.7600   -2.3260    0.1260 ha        1 MOL      0.137803
    130 H56         9.0200   -1.4070   -4.0790 ha        1 MOL      0.137803
    131 H57        11.2320   -1.6480    0.4760 ha        1 MOL      0.101819
    132 H58        11.4800   -0.5530   -3.6750 ha        1 MOL      0.101819
    133 H59        12.3900   -0.5780   -1.4470 ha        1 MOL      0.132424
    134 N12         6.0740    0.9180   -1.9020 n         1 MOL     -0.113008
    135 C45         6.2930    2.3360   -1.7650 c3        1 MOL      0.098723
    136 C46         5.5360    2.9100   -0.5360 c         1 MOL      0.276806
    137 O20         5.8980    4.0460   -0.2280 o         1 MOL     -0.510540
    138 C47         5.8760    3.0080   -3.1030 c3        1 MOL     -0.204072
    139 C48         5.8190    1.8010   -4.1030 c3        1 MOL      0.058666
    140 C49         5.3960    0.6320   -3.1800 c3        1 MOL     -0.037129
    141 H60         7.3370    2.5330   -1.5510 h1        1 MOL      0.076640
    142 H61         4.8940    3.4860   -3.0420 hc        1 MOL      0.087312
    143 H62         6.6480    3.7480   -3.3050 hc        1 MOL      0.087312
    144 H63         5.1910    2.0060   -4.9670 hc        1 MOL      0.005431
    145 H64         6.8410    1.5360   -4.3740 hc        1 MOL      0.005431
    146 H65         4.3440    0.6120   -2.9070 h1        1 MOL      0.042797
    147 H66         5.6800   -0.3200   -3.6410 h1        1 MOL      0.042797
    148 N13         4.7000    2.0990    0.1330 n         1 MOL     -0.010874
    149 C50         4.1000    2.4280    1.4130 c3        1 MOL     -0.117988
    150 C51         4.8580    1.8440    2.6370 c         1 MOL      0.469972
    151 O21         4.8140    2.4460    3.7120 o         1 MOL     -0.569073
    152 C52         2.6050    2.0180    1.4880 c3        1 MOL      0.006079
    153 C53         1.7620    2.1220    0.1640 c3        1 MOL     -0.128135
    154 C54         0.4170    1.5160    0.4070 c         1 MOL      0.694449
    155 O22        -0.6000    2.0360   -0.1310 o         1 MOL     -0.714317
    156 O23         0.3280    0.3930    0.9190 o         1 MOL     -0.714317
    157 H67         4.6060    1.1410   -0.1850 hn        1 MOL      0.060323
    158 H68         4.2690    3.4980    1.5230 h1        1 MOL      0.093968
    159 H69         2.0490    2.5050    2.2880 hc        1 MOL      0.027323
    160 H70         2.6660    0.9980    1.8470 hc        1 MOL      0.027323
    161 H71         2.3140    1.6510   -0.6510 hc        1 MOL      0.059056
    162 H72         1.6430    3.1600   -0.1390 hc        1 MOL      0.059056
    163 N14         5.5070    0.7270    2.4720 n         1 MOL     -0.057531
    164 C55         6.5380    0.3090    3.4200 c3        1 MOL     -0.153082
    165 H73         7.5220    0.4670    2.9790 h1        1 MOL      0.064288
    166 H74         6.4510    0.8970    4.3340 h1        1 MOL      0.064288
    167 H75         6.4100   -0.7480    3.6530 h1        1 MOL      0.064288
    168 H76         5.4550    0.1930    1.6190 hn        1 MOL      0.098868
    169 Ca1        -2.0170   -0.1130   -0.1290 Ca        1 MOL      1.663509
    170 O24        -4.2960   -0.7820    1.4390 oh        1 MOL     -0.756779
    171 H77        -4.7410   -1.0570    2.2370 ho        1 MOL      0.370039
    172 H78        -4.5760    0.1210    1.3050 ho        1 MOL      0.370039
    173 O25        -1.5490    0.2760    2.7120 oh        1 MOL     -0.756779
    174 H79        -0.6550    0.6060    2.6140 ho        1 MOL      0.370039
    175 H80        -1.7900    0.4790    3.6170 ho        1 MOL      0.370039
@<TRIPOS>BOND
     1    1    2 1   
     2    1    4 1   
     3    1    5 1   
     4    1    6 1   
     5    2    3 2   
     6    2    7 1   
     7    7    8 1   
     8    7   15 1   
     9    8    9 1   
    10    8   11 1   
    11    8   16 1   
    12    9   10 2   
    13    9   19 1   
    14   11   12 1   
    15   11   17 1   
    16   11   18 1   
    17   12   13 1   
    18   12   14 1   
    19   19   20 1   
    20   19   24 1   
    21   20   21 1   
    22   20   23 1   
    23   20   25 1   
    24   21   22 2   
    25   21   29 1   
    26   23   26 1   
    27   23   27 1   
    28   23   28 1   
    29   29   30 1   
    30   29   37 1   
    31   30   31 1   
    32   30   33 1   
    33   30   38 1   
    34   31   32 2   
    35   31   41 1   
    36   33   34 1   
    37   33   39 1   
    38   33   40 1   
    39   34   35 1   
    40   34   36 1   
    41   41   42 1   
    42   41   45 1   
    43   42   43 1   
    44   42   46 1   
    45   42   47 1   
    46   43   44 2   
    47   43   48 1   
    48   48   49 1   
    49   48   56 1   
    50   49   50 1   
    51   49   52 1   
    52   49   57 1   
    53   50   51 2   
    54   50   62 1   
    55   52   53 1   
    56   52   58 1   
    57   52   59 1   
    58   53   54 1   
    59   53   55 2   
    60   54   60 1   
    61   54   61 1   
    62   62   63 1   
    63   62   66 1   
    64   63   64 1   
    65   63   67 1   
    66   63   68 1   
    67   64   65 2   
    68   64   69 1   
    69   69   70 1   
    70   69   76 1   
    71   70   71 1   
    72   70   73 1   
    73   70   77 1   
    74   71   72 2   
    75   71   83 1   
    76   73   74 1   
    77   73   75 1   
    78   73   78 1   
    79   74   80 1   
    80   74   81 1   
    81   74   82 1   
    82   75   79 1   
    83   83   84 1   
    84   83   91 1   
    85   84   85 1   
    86   84   87 1   
    87   84   92 1   
    88   85   86 2   
    89   85  102 1   
    90   87   88 1   
    91   87   89 1   
    92   87   93 1   
    93   88   90 1   
    94   88   94 1   
    95   88   95 1   
    96   89   96 1   
    97   89   97 1   
    98   89   98 1   
    99   90   99 1   
   100   90  100 1   
   101   90  101 1   
   102  102  103 1   
   103  102  110 1   
   104  103  104 1   
   105  103  106 1   
   106  103  111 1   
   107  104  105 2   
   108  104  114 1   
   109  106  107 1   
   110  106  112 1   
   111  106  113 1   
   112  107  108 1   
   113  107  109 1   
   114  114  115 1   
   115  114  125 1   
   116  115  116 1   
   117  115  118 1   
   118  115  126 1   
   119  116  117 2   
   120  116  134 1   
   121  118  119 1   
   122  118  127 1   
   123  118  128 1   
   124  119  120 ar  
   125  119  121 ar  
   126  120  122 ar  
   127  120  129 1   
   128  121  123 ar  
   129  121  130 1   
   130  122  124 ar  
   131  122  131 1   
   132  123  124 ar  
   133  123  132 1   
   134  124  133 1   
   135  134  135 1   
   136  134  140 1   
   137  135  136 1   
   138  135  138 1   
   139  135  141 1   
   140  136  137 2   
   141  136  148 1   
   142  138  139 1   
   143  138  142 1   
   144  138  143 1   
   145  139  140 1   
   146  139  144 1   
   147  139  145 1   
   148  140  146 1   
   149  140  147 1   
   150  148  149 1   
   151  148  157 1   
   152  149  150 1   
   153  149  152 1   
   154  149  158 1   
   155  150  151 2   
   156  150  163 1   
   157  152  153 1   
   158  152  159 1   
   159  152  160 1   
   160  153  154 1   
   161  153  161 1   
   162  153  162 1   
   163  154  155 1   
   164  154  156 1   
   165  163  164 1   
   166  163  168 1   
   167  164  165 1   
   168  164  166 1   
   169  164  167 1   
   170  170  171 1   
   171  170  172 1   
   172  173  174 1   
   173  173  175 1   
@<TRIPOS>SUBSTRUCTURE
     1 MOL         1 TEMP              0 ****  ****    0 ROOT
