@<TRIPOS>MOLECULE
MOL
  182   178     1     0     0
SMALL
resp


@<TRIPOS>ATOM
      1 C1         -1.4510   -2.8580    6.1080 c3        1 MOL     -0.353060
      2 C2         -1.0820   -2.6790    4.6430 c         1 MOL      0.755172
      3 O1         -1.8690   -3.0060    3.7490 o         1 MOL     -0.617806
      4 H1         -0.9960   -2.0610    6.6960 hc        1 MOL      0.094306
      5 H2         -2.5340   -2.8160    6.2180 hc        1 MOL      0.094306
      6 H3         -1.0850   -3.8230    6.4600 hc        1 MOL      0.094306
      7 N1          0.1730   -2.2170    4.3010 n         1 MOL     -0.647058
      8 C3          0.7150   -2.1460    2.9270 c3        1 MOL      0.113726
      9 C4          1.0580   -3.6200    2.2860 c         1 MOL      0.599385
     10 O2          1.7590   -4.4150    2.9350 o         1 MOL     -0.568615
     11 C5          1.9970   -1.2610    2.9700 c3        1 MOL     -0.090116
     12 C6          2.6840   -0.9670    1.6180 c         1 MOL      0.449461
     13 O3          3.6030   -0.1570    1.6660 o         1 MOL     -0.625235
     14 O4          2.3040   -1.5350    0.5440 o         1 MOL     -0.625235
     15 H4          0.7370   -1.8860    5.0730 hn        1 MOL      0.313531
     16 H5         -0.0860   -1.6680    2.3560 h1        1 MOL      0.061451
     17 H6          2.6420   -1.7950    3.6680 hc        1 MOL      0.052000
     18 H7          1.6470   -0.3070    3.3640 hc        1 MOL      0.052000
     19 N2          0.4850   -3.8080    1.1090 n         1 MOL     -0.456556
     20 C7          0.4390   -5.1300    0.3990 c3        1 MOL     -0.014453
     21 C8          1.6850   -5.5000   -0.4030 c         1 MOL      0.480489
     22 O5          1.7930   -6.6900   -0.7150 o         1 MOL     -0.561192
     23 C9         -0.8830   -5.3020   -0.4080 c3        1 MOL      0.001707
     24 C10        -2.0500   -5.2540    0.6730 c3        1 MOL      0.044641
     25 C11        -3.4000   -5.4170   -0.0270 c3        1 MOL     -0.089215
     26 C12        -3.5110   -6.6570   -1.0110 c3        1 MOL      0.087334
     27 N3         -4.8850   -6.7650   -1.5930 n4        1 MOL     -0.443427
     28 H8         -0.0110   -3.0610    0.6470 hn        1 MOL      0.314677
     29 H9          0.4490   -5.8900    1.1880 h1        1 MOL      0.105767
     30 H10        -0.7990   -6.2840   -0.8570 hc        1 MOL     -0.004772
     31 H11        -1.0050   -4.5840   -1.2170 hc        1 MOL     -0.004772
     32 H12        -2.0410   -4.3620    1.3060 hc        1 MOL      0.034695
     33 H13        -1.7600   -6.1270    1.2610 hc        1 MOL      0.034695
     34 H14        -3.5930   -4.5100   -0.6060 hc        1 MOL      0.050245
     35 H15        -4.1710   -5.4450    0.7390 hc        1 MOL      0.050245
     36 H16        -3.1520   -7.5480   -0.4800 hx        1 MOL      0.075378
     37 H17        -2.9270   -6.4930   -1.9140 hx        1 MOL      0.075378
     38 H18        -4.9180   -7.0680   -2.5570 hn        1 MOL      0.347142
     39 H19        -5.4550   -7.3770   -1.0320 hn        1 MOL      0.347142
     40 H20        -5.3110   -5.8450   -1.5810 hn        1 MOL      0.347142
     41 N4          2.6470   -4.6060   -0.7180 n         1 MOL     -0.395321
     42 C13         3.9850   -4.9520   -1.2260 c3        1 MOL      0.087790
     43 C14         5.0590   -4.4430   -0.2740 c         1 MOL      0.398216
     44 O6          6.2120   -4.8530   -0.4140 o         1 MOL     -0.530406
     45 C15         4.2980   -4.3770   -2.5720 c3        1 MOL     -0.331683
     46 C16         3.9140   -2.9930   -2.9230 c         1 MOL      0.992053
     47 O7          3.3070   -2.2850   -2.1080 o         1 MOL     -0.782475
     48 O8          4.1570   -2.6050   -4.1020 o         1 MOL     -0.782475
     49 H21         2.4170   -3.6230   -0.7610 hn        1 MOL      0.331762
     50 H22         4.0860   -6.0420   -1.2360 h1        1 MOL      0.108796
     51 H23         3.8420   -4.9690   -3.3690 hc        1 MOL      0.075776
     52 H24         5.3650   -4.4300   -2.7470 hc        1 MOL      0.075776
     53 N5          4.7300   -3.4800    0.5820 n         1 MOL     -0.104487
     54 C17         5.6000   -2.8460    1.5260 c3        1 MOL     -0.357814
     55 C18         6.4360   -1.6440    1.0640 c         1 MOL      0.518461
     56 O9          7.4520   -1.2610    1.6730 o         1 MOL     -0.556293
     57 H25         3.7820   -3.1710    0.7470 hn        1 MOL      0.146223
     58 H26         6.3470   -3.5570    1.8650 h1        1 MOL      0.158830
     59 H27         5.0120   -2.5430    2.3930 h1        1 MOL      0.158830
     60 N6          5.9840   -1.1150   -0.0840 n         1 MOL     -0.073003
     61 C19         6.7450   -0.0500   -0.7600 c3        1 MOL     -0.301304
     62 C20         6.6390    1.3680   -0.1600 c         1 MOL      0.413830
     63 O10         7.3430    2.2920   -0.5360 o         1 MOL     -0.516309
     64 C21         6.1080   -0.1240   -2.1640 c3        1 MOL      0.121534
     65 C22         4.8200    0.5860   -2.3220 c         1 MOL      0.441563
     66 N7          4.6930    1.2960   -3.3860 n         1 MOL     -0.527189
     67 O11         3.8730    0.5690   -1.5010 o         1 MOL     -0.608212
     68 H28         5.1360   -1.5120   -0.4690 hn        1 MOL      0.108775
     69 H29         7.7990   -0.3220   -0.7190 h1        1 MOL      0.170975
     70 H30         6.0280   -1.1100   -2.6360 hc        1 MOL      0.018774
     71 H31         6.8080    0.4100   -2.7930 hc        1 MOL      0.018774
     72 H32         5.3720    1.2510   -4.1330 hn        1 MOL      0.279629
     73 H33         3.8260    1.7460   -3.6500 hn        1 MOL      0.279629
     74 N8          5.7940    1.5450    0.8250 n         1 MOL      0.032921
     75 C23         5.7080    2.6940    1.7200 c3        1 MOL     -0.449845
     76 C24         4.3270    3.3990    1.7490 c         1 MOL      0.741493
     77 O12         4.1660    4.3650    2.4710 o         1 MOL     -0.565491
     78 H34         5.1970    0.7590    1.0070 hn        1 MOL      0.195830
     79 H35         6.4050    3.4930    1.4660 h1        1 MOL      0.166112
     80 H36         5.9860    2.2690    2.6840 h1        1 MOL      0.166112
     81 N9          3.3320    2.8670    0.9590 n         1 MOL     -0.671578
     82 C25         2.1290    3.6800    0.6500 c3        1 MOL      0.166741
     83 C26         0.9230    2.7820    0.5550 c         1 MOL      0.489322
     84 O13         1.0420    1.6050    0.1390 o         1 MOL     -0.465214
     85 C27         2.4960    4.3710   -0.6830 c3        1 MOL      0.017915
     86 C28         3.6580    5.3140   -0.5510 ca        1 MOL     -0.075012
     87 C29         4.9760    4.9280   -0.7270 ca        1 MOL     -0.133683
     88 C30         3.4150    6.5970   -0.0440 ca        1 MOL     -0.133683
     89 C31         6.0210    5.8800   -0.5380 ca        1 MOL     -0.217493
     90 C32         4.4390    7.4980    0.1810 ca        1 MOL     -0.217493
     91 C33         5.7190    7.1540    0.0190 ca        1 MOL      0.332178
     92 O14         6.7440    7.9820    0.1750 oh        1 MOL     -0.463433
     93 H37         3.4270    1.9800    0.4860 hn        1 MOL      0.422637
     94 H38         1.9880    4.4060    1.4460 h1        1 MOL      0.067927
     95 H39         1.6130    4.9420   -0.9990 hc        1 MOL      0.010392
     96 H40         2.6970    3.6260   -1.4490 hc        1 MOL      0.010392
     97 H41         5.1730    3.9640   -1.1730 ha        1 MOL      0.114835
     98 H42         2.4190    6.9470    0.2060 ha        1 MOL      0.114835
     99 H43         7.0750    5.6410   -0.6420 ha        1 MOL      0.120801
    100 H44         4.2140    8.5100    0.5080 ha        1 MOL      0.120801
    101 H45         6.4730    8.8280    0.5400 ho        1 MOL      0.350236
    102 N10        -0.2050    3.2990    0.9650 n         1 MOL     -0.501409
    103 C34        -1.5700    2.6810    0.9860 c3        1 MOL      0.033217
    104 C35        -2.7450    3.5510    0.4720 c         1 MOL      0.468164
    105 O15        -2.8840    4.7380    0.9240 o         1 MOL     -0.510200
    106 C36        -1.8910    1.9910    2.2750 c3        1 MOL      0.057653
    107 C37        -1.7300    2.9070    3.5050 c3        1 MOL     -0.079643
    108 C38        -1.0100    0.7230    2.4780 c3        1 MOL     -0.371718
    109 C39        -2.5530    2.4900    4.7110 c3        1 MOL      0.010954
    110 H46        -0.1260    4.1780    1.4600 hn        1 MOL      0.282108
    111 H47        -1.4690    2.0180    0.1290 h1        1 MOL      0.107697
    112 H48        -2.9340    1.6860    2.1480 hc        1 MOL     -0.029640
    113 H49        -1.9860    3.9500    3.2900 hc        1 MOL      0.047722
    114 H50        -0.6740    2.8850    3.7770 hc        1 MOL      0.047722
    115 H51        -1.2370    0.1770    3.3950 hc        1 MOL      0.116538
    116 H52        -1.2120    0.0510    1.6380 hc        1 MOL      0.116538
    117 H53         0.0370    0.9500    2.6510 hc        1 MOL      0.116538
    118 H54        -2.3440    1.4830    5.0920 hc        1 MOL     -0.001647
    119 H55        -2.4130    3.1150    5.6010 hc        1 MOL     -0.001647
    120 H56        -3.6210    2.5360    4.4920 hc        1 MOL     -0.001647
    121 N11        -3.3700    3.0420   -0.5730 n         1 MOL     -0.290609
    122 C40        -4.4870    3.6430   -1.3050 c3        1 MOL      0.022158
    123 C41        -5.7530    3.4410   -0.4190 c         1 MOL      0.432867
    124 O16        -5.7430    2.6310    0.4750 o         1 MOL     -0.337418
    125 C42        -4.6220    2.9510   -2.6760 c3        1 MOL     -0.157510
    126 O17        -4.5370    1.5200   -2.6430 oh        1 MOL     -0.333936
    127 H57        -3.2550    2.0490   -0.7290 hn        1 MOL      0.192820
    128 H58        -4.3780    4.7280   -1.3630 h1        1 MOL      0.093236
    129 H59        -3.8160    3.3110   -3.3300 h1        1 MOL      0.104257
    130 H60        -5.5840    3.1960   -3.1240 h1        1 MOL      0.104257
    131 H61        -3.6960    1.3200   -3.0670 ho        1 MOL      0.366589
    132 N12        -6.8950    3.9360   -0.9630 n         1 MOL     -0.471448
    133 C43        -8.2450    3.5390   -0.4750 c3        1 MOL      0.098884
    134 C44        -8.4870    2.1000   -0.9090 c         1 MOL      0.407665
    135 O18        -9.1640    1.3870   -0.2060 o         1 MOL     -0.484563
    136 C45        -9.3750    4.4910   -0.9700 c3        1 MOL     -0.244134
    137 H62        -6.8080    4.4070   -1.8520 hn        1 MOL      0.283790
    138 H63        -8.2610    3.6980    0.6080 h1        1 MOL      0.119966
    139 H64        -9.4900    4.5090   -2.0560 hc        1 MOL      0.085763
    140 H65       -10.3030    4.1160   -0.5210 hc        1 MOL      0.085763
    141 H66        -9.2430    5.5100   -0.6190 hc        1 MOL      0.085763
    142 N13        -7.8450    1.5850   -1.9650 n         1 MOL     -0.273930
    143 C46        -7.9330    0.2550   -2.4000 c3        1 MOL      0.048843
    144 C47        -7.2020   -0.7190   -1.3820 c         1 MOL      0.373278
    145 O19        -7.6030   -1.8510   -1.2080 o         1 MOL     -0.523705
    146 C48        -7.2840    0.0290   -3.7460 c3        1 MOL     -0.226144
    147 H67        -7.4280    2.2330   -2.6190 hn        1 MOL      0.255369
    148 H68        -8.9630   -0.0860   -2.4920 h1        1 MOL      0.095154
    149 H69        -6.3540    0.5860   -3.8660 hc        1 MOL      0.066304
    150 H70        -7.1100   -1.0250   -3.9650 hc        1 MOL      0.066304
    151 H71        -7.9340    0.3820   -4.5430 hc        1 MOL      0.066304
    152 N14        -6.0450   -0.2870   -0.8360 n         1 MOL      0.073468
    153 C49        -5.2630   -1.1000    0.1030 c3        1 MOL      0.045035
    154 C50        -5.8510   -1.0850    1.5380 c         1 MOL      0.386284
    155 O20        -5.8680   -2.0940    2.2260 o         1 MOL     -0.533377
    156 C51        -3.7180   -0.7610    0.2250 c3        1 MOL     -0.008210
    157 C52        -2.9230   -1.3510   -0.9690 c3        1 MOL     -0.036792
    158 C53        -1.4600   -1.0730   -0.9680 c         1 MOL      0.925685
    159 O21        -1.0360   -0.0630   -1.6350 o         1 MOL     -0.861197
    160 O22        -0.5490   -1.5900   -0.3010 o         1 MOL     -0.861197
    161 H72        -5.7100    0.6310   -1.1080 hn        1 MOL     -0.233846
    162 H73        -5.3860   -2.1510   -0.1570 h1        1 MOL      0.002764
    163 H74        -3.4160   -1.1180    1.2110 hc        1 MOL      0.069887
    164 H75        -3.6390    0.3210    0.1520 hc        1 MOL      0.069887
    165 H76        -3.3540   -1.1290   -1.9440 hc        1 MOL     -0.029990
    166 H77        -2.9200   -2.4380   -0.8500 hc        1 MOL     -0.029990
    167 N15        -6.3930    0.0350    1.9470 n         1 MOL     -0.060311
    168 C54        -7.0510    0.1620    3.2600 c3        1 MOL     -0.238268
    169 H78        -6.6170    1.0010    3.8030 h1        1 MOL      0.104937
    170 H79        -8.1180    0.3360    3.1170 h1        1 MOL      0.104937
    171 H80        -6.9050   -0.7540    3.8300 h1        1 MOL      0.104937
    172 H81        -6.2220    0.8200    1.3290 hn        1 MOL      0.097820
    173 Ca1         1.4520   -0.4860   -1.5650 Ca        1 MOL      1.792741
    174 O23         0.4470   -2.6190   -3.0150 oh        1 MOL     -0.872683
    175 H82         1.1180   -3.2200   -3.3430 ho        1 MOL      0.408537
    176 H83        -0.2020   -2.5820   -3.7180 ho        1 MOL      0.408537
    177 O24         2.2600   -0.5700   -4.1930 oh        1 MOL     -0.872683
    178 H84         2.9980   -1.1780   -4.1270 ho        1 MOL      0.408537
    179 H85         2.6020    0.1570   -4.7030 ho        1 MOL      0.408537
    180 O25         1.5690    1.9200   -2.9660 oh        1 MOL     -0.872683
    181 H86         0.9420    2.6290   -2.9490 ho        1 MOL      0.408537
    182 H87         1.8860    1.8960   -3.8710 ho        1 MOL      0.408537
@<TRIPOS>BOND
     1    1    2 1   
     2    1    4 1   
     3    1    5 1   
     4    1    6 1   
     5    2    3 2   
     6    2    7 1   
     7    7    8 1   
     8    7   15 1   
     9    8    9 1   
    10    8   11 1   
    11    8   16 1   
    12    9   10 2   
    13    9   19 1   
    14   11   12 1   
    15   11   17 1   
    16   11   18 1   
    17   12   13 1   
    18   12   14 1   
    19   19   20 1   
    20   19   28 1   
    21   20   21 1   
    22   20   23 1   
    23   20   29 1   
    24   21   22 2   
    25   21   41 1   
    26   23   24 1   
    27   23   30 1   
    28   23   31 1   
    29   24   25 1   
    30   24   32 1   
    31   24   33 1   
    32   25   26 1   
    33   25   34 1   
    34   25   35 1   
    35   26   27 1   
    36   26   36 1   
    37   26   37 1   
    38   27   38 1   
    39   27   39 1   
    40   27   40 1   
    41   41   42 1   
    42   41   49 1   
    43   42   43 1   
    44   42   45 1   
    45   42   50 1   
    46   43   44 2   
    47   43   53 1   
    48   45   46 1   
    49   45   51 1   
    50   45   52 1   
    51   46   47 1   
    52   46   48 1   
    53   53   54 1   
    54   53   57 1   
    55   54   55 1   
    56   54   58 1   
    57   54   59 1   
    58   55   56 2   
    59   55   60 1   
    60   60   61 1   
    61   60   68 1   
    62   61   62 1   
    63   61   64 1   
    64   61   69 1   
    65   62   63 2   
    66   62   74 1   
    67   64   65 1   
    68   64   70 1   
    69   64   71 1   
    70   65   66 1   
    71   65   67 2   
    72   66   72 1   
    73   66   73 1   
    74   74   75 1   
    75   74   78 1   
    76   75   76 1   
    77   75   79 1   
    78   75   80 1   
    79   76   77 2   
    80   76   81 1   
    81   81   82 1   
    82   81   93 1   
    83   82   83 1   
    84   82   85 1   
    85   82   94 1   
    86   83   84 2   
    87   83  102 1   
    88   85   86 1   
    89   85   95 1   
    90   85   96 1   
    91   86   87 ar  
    92   86   88 ar  
    93   87   89 ar  
    94   87   97 1   
    95   88   90 ar  
    96   88   98 1   
    97   89   91 ar  
    98   89   99 1   
    99   90   91 ar  
   100   90  100 1   
   101   91   92 1   
   102   92  101 1   
   103  102  103 1   
   104  102  110 1   
   105  103  104 1   
   106  103  106 1   
   107  103  111 1   
   108  104  105 2   
   109  104  121 1   
   110  106  107 1   
   111  106  108 1   
   112  106  112 1   
   113  107  109 1   
   114  107  113 1   
   115  107  114 1   
   116  108  115 1   
   117  108  116 1   
   118  108  117 1   
   119  109  118 1   
   120  109  119 1   
   121  109  120 1   
   122  121  122 1   
   123  121  127 1   
   124  122  123 1   
   125  122  125 1   
   126  122  128 1   
   127  123  124 2   
   128  123  132 1   
   129  125  126 1   
   130  125  129 1   
   131  125  130 1   
   132  126  131 1   
   133  132  133 1   
   134  132  137 1   
   135  133  134 1   
   136  133  136 1   
   137  133  138 1   
   138  134  135 2   
   139  134  142 1   
   140  136  139 1   
   141  136  140 1   
   142  136  141 1   
   143  142  143 1   
   144  142  147 1   
   145  143  144 1   
   146  143  146 1   
   147  143  148 1   
   148  144  145 2   
   149  144  152 1   
   150  146  149 1   
   151  146  150 1   
   152  146  151 1   
   153  152  153 1   
   154  152  161 1   
   155  153  154 1   
   156  153  156 1   
   157  153  162 1   
   158  154  155 2   
   159  154  167 1   
   160  156  157 1   
   161  156  163 1   
   162  156  164 1   
   163  157  158 1   
   164  157  165 1   
   165  157  166 1   
   166  158  159 1   
   167  158  160 1   
   168  167  168 1   
   169  167  172 1   
   170  168  169 1   
   171  168  170 1   
   172  168  171 1   
   173  174  175 1   
   174  174  176 1   
   175  177  178 1   
   176  177  179 1   
   177  180  181 1   
   178  180  182 1   
@<TRIPOS>SUBSTRUCTURE
     1 MOL         1 TEMP              0 ****  ****    0 ROOT
