@<TRIPOS>MOLECULE
MOL
  189   185     1     0     0
SMALL
resp


@<TRIPOS>ATOM
      1 C1         -0.4140    3.7800    4.6240 c3        1 MOL     -0.276164
      2 C2         -0.8770    3.1550    3.3060 c         1 MOL      0.667639
      3 O1         -0.1630    3.3260    2.3090 o         1 MOL     -0.599286
      4 H1          0.3580    4.5220    4.4220 hc        1 MOL      0.074044
      5 H2         -1.2600    4.2620    5.1150 hc        1 MOL      0.074044
      6 H3         -0.0090    3.0040    5.2730 hc        1 MOL      0.074044
      7 N1         -1.9720    2.3080    3.3010 n         1 MOL     -0.557012
      8 C3         -2.5510    1.6800    2.0900 c3        1 MOL      0.342380
      9 C4         -3.2200    2.7470    1.1340 c         1 MOL      0.185338
     10 O2         -4.4210    2.8760    1.1700 o         1 MOL     -0.471746
     11 C5         -3.6590    0.6420    2.5900 c3        1 MOL     -0.204922
     12 C6         -4.2050   -0.1290    1.3380 c         1 MOL      0.728798
     13 O3         -3.5460    0.1150    0.2840 o         1 MOL     -0.677608
     14 O4         -5.2100   -0.8890    1.3580 o         1 MOL     -0.677608
     15 H4         -2.6190    2.2860    4.0710 hn        1 MOL      0.290679
     16 H5         -1.8050    1.1690    1.4910 h1        1 MOL     -0.040709
     17 H6         -4.4780    1.1880    3.0380 hc        1 MOL      0.040011
     18 H7         -3.2930    0.0120    3.3970 hc        1 MOL      0.040011
     19 N2         -2.4420    3.4710    0.4230 n         1 MOL     -0.091587
     20 C7         -3.0400    4.6670   -0.2480 c3        1 MOL     -0.057432
     21 C8         -3.9450    4.3720   -1.5050 c         1 MOL      0.423625
     22 O5         -4.6490    5.2920   -1.9720 o         1 MOL     -0.576034
     23 C9         -1.9310    5.6630   -0.5350 c3        1 MOL      0.016664
     24 C10        -1.2570    6.3060    0.7020 c3        1 MOL      0.147573
     25 C11        -2.2400    7.0680    1.6350 c3        1 MOL     -0.492403
     26 C12        -3.0840    8.1050    0.9000 c3        1 MOL      0.345220
     27 N3         -3.9240    8.8930    1.8520 n4        1 MOL     -0.508581
     28 H8         -1.4420    3.3810    0.4770 hn        1 MOL      0.266377
     29 H9         -3.7100    5.1770    0.4340 h1        1 MOL      0.068740
     30 H10        -2.3510    6.5030   -1.0860 hc        1 MOL      0.002932
     31 H11        -1.1410    5.1390   -1.0760 hc        1 MOL      0.002932
     32 H12        -0.3950    6.9020    0.4110 hc        1 MOL      0.020703
     33 H13        -0.8630    5.4880    1.3030 hc        1 MOL      0.020703
     34 H14        -1.7300    7.5440    2.4720 hc        1 MOL      0.116822
     35 H15        -2.9050    6.3060    2.0320 hc        1 MOL      0.116822
     36 H16        -3.7500    7.5920    0.2020 hx        1 MOL      0.018735
     37 H17        -2.4880    8.7900    0.2900 hx        1 MOL      0.018735
     38 H18        -4.6090    8.2570    2.2300 hn        1 MOL      0.361470
     39 H19        -3.2770    9.1390    2.5980 hn        1 MOL      0.361470
     40 H20        -4.2940    9.6930    1.3740 hn        1 MOL      0.361470
     41 N4         -3.9650    3.1460   -2.0090 n         1 MOL     -0.127549
     42 C13        -4.9430    2.7170   -3.0610 c3        1 MOL      0.055989
     43 C14        -5.9870    1.7810   -2.6080 c         1 MOL      0.373138
     44 O6         -6.7590    1.2740   -3.3750 o         1 MOL     -0.497478
     45 C15        -4.1600    2.2270   -4.3020 c3        1 MOL     -0.324516
     46 C16        -3.2100    1.1160   -3.9040 c         1 MOL      0.878958
     47 O7         -2.2860    0.8500   -4.6800 o         1 MOL     -0.703936
     48 O8         -3.3370    0.4960   -2.8020 o         1 MOL     -0.703936
     49 H21        -3.3700    2.3990   -1.6700 hn        1 MOL      0.103754
     50 H22        -5.5120    3.5960   -3.3850 h1        1 MOL      0.094504
     51 H23        -3.5320    3.0500   -4.6530 hc        1 MOL      0.081439
     52 H24        -4.8520    1.8070   -5.0330 hc        1 MOL      0.081439
     53 N5         -6.0110    1.4600   -1.3130 n         1 MOL     -0.097724
     54 C17        -7.2330    0.9360   -0.6520 c3        1 MOL     -0.248369
     55 C18        -7.5390   -0.5440   -1.0880 c         1 MOL      0.485475
     56 O9         -8.7260   -0.9440   -1.1470 o         1 MOL     -0.575672
     57 H25        -5.2970    1.7200   -0.6500 hn        1 MOL      0.088636
     58 H26        -8.0290    1.6270   -0.9050 h1        1 MOL      0.122698
     59 H27        -7.0180    1.0220    0.4100 h1        1 MOL      0.122698
     60 N6         -6.4800   -1.3110   -1.3660 n         1 MOL     -0.133011
     61 C19        -6.6150   -2.6930   -1.8290 c3        1 MOL     -0.052171
     62 C20        -6.5700   -3.8080   -0.6940 c         1 MOL      0.412670
     63 O10        -6.9120   -4.9800   -1.0140 o         1 MOL     -0.530894
     64 C21        -5.5330   -2.9690   -2.8580 c3        1 MOL     -0.158357
     65 C22        -4.1230   -2.8600   -2.4390 c         1 MOL      0.773563
     66 O11        -3.1520   -2.7530   -3.2120 o         1 MOL     -0.766189
     67 O12        -3.8190   -2.6910   -1.2280 o         1 MOL     -0.766189
     68 H28        -5.5830   -0.9490   -1.1000 hn        1 MOL      0.159350
     69 H29        -7.5620   -2.8220   -2.3530 h1        1 MOL      0.119657
     70 H30        -5.6100   -2.2530   -3.6850 hc        1 MOL      0.057296
     71 H31        -5.7480   -3.9660   -3.2540 hc        1 MOL      0.057296
     72 N7         -6.2090   -3.4720    0.5730 n         1 MOL     -0.307987
     73 C23        -6.0900   -4.4700    1.6780 c3        1 MOL      0.052370
     74 C24        -4.6640   -4.7700    2.1130 c         1 MOL      0.457674
     75 O13        -4.4920   -5.7300    2.8890 o         1 MOL     -0.568849
     76 H32        -5.8750   -2.5320    0.7290 hn        1 MOL      0.247652
     77 H33        -6.6740   -5.3650    1.4440 h1        1 MOL      0.050781
     78 H34        -6.5740   -4.0140    2.5500 h1        1 MOL      0.050781
     79 N8         -3.6710   -4.0320    1.6590 n         1 MOL     -0.090645
     80 C25        -2.2330   -4.3460    1.8290 c3        1 MOL     -0.384773
     81 C26        -1.2820   -3.1300    1.7490 c         1 MOL      0.753478
     82 O14        -1.5940   -2.2070    1.0180 o         1 MOL     -0.672635
     83 C27        -1.6240   -5.3090    0.7520 c3        1 MOL      0.489458
     84 C28        -2.1410   -6.6760    0.9570 c3        1 MOL     -0.364978
     85 O15        -1.9240   -4.9180   -0.5340 oh        1 MOL     -0.589334
     86 H35        -3.8110   -3.1740    1.1420 hn        1 MOL      0.165630
     87 H36        -2.0720   -4.6720    2.8560 h1        1 MOL      0.118924
     88 H37        -0.5360   -5.3280    0.8030 h1        1 MOL     -0.012945
     89 H38        -2.7370   -4.4060   -0.4790 ho        1 MOL      0.397337
     90 H39        -2.2230   -6.8980    2.0170 hc        1 MOL      0.088675
     91 H40        -3.0850   -6.8150    0.4350 hc        1 MOL      0.088675
     92 H41        -1.3880   -7.3810    0.5950 hc        1 MOL      0.088675
     93 N9         -0.1850   -3.1650    2.4760 n         1 MOL     -0.560991
     94 C29         0.8390   -2.1540    2.5130 c3        1 MOL     -0.013029
     95 C30         2.1740   -2.7460    2.0590 c         1 MOL      0.554465
     96 O16         2.7300   -3.7270    2.5550 o         1 MOL     -0.540347
     97 C31         0.9130   -1.4960    3.9660 c3        1 MOL      0.038247
     98 C32        -0.4680   -0.9500    4.3930 c3        1 MOL      0.313117
     99 C33         1.9770   -0.3690    3.9480 c3        1 MOL     -0.401078
    100 C34        -0.5220   -0.7460    5.9290 c3        1 MOL     -0.149004
    101 H42        -0.0960   -3.9870    3.0450 hn        1 MOL      0.298677
    102 H43         0.5800   -1.3710    1.8000 h1        1 MOL      0.157532
    103 H44         1.1900   -2.2250    4.7300 hc        1 MOL      0.032682
    104 H45        -1.2190   -1.6990    4.1450 hc        1 MOL     -0.064843
    105 H46        -0.7710   -0.0070    3.9340 hc        1 MOL     -0.064843
    106 H47         2.9470   -0.7460    3.6360 hc        1 MOL      0.095484
    107 H48         1.6100    0.4150    3.2780 hc        1 MOL      0.095484
    108 H49         2.0910    0.1930    4.8810 hc        1 MOL      0.095484
    109 H50        -1.4090   -0.1430    6.1620 hc        1 MOL      0.016842
    110 H51        -0.5910   -1.6940    6.4470 hc        1 MOL      0.016842
    111 H52         0.3080   -0.1800    6.3630 hc        1 MOL      0.016842
    112 N10         2.7580   -2.2340    0.8970 n         1 MOL     -0.339272
    113 C35         4.0880   -2.6340    0.3390 c3        1 MOL      0.108979
    114 C36         5.2340   -1.8670    0.9450 c         1 MOL      0.341899
    115 O17         5.0110   -0.8910    1.6140 o         1 MOL     -0.239938
    116 C37         4.1280   -2.3480   -1.1550 c3        1 MOL      0.036644
    117 C38         3.0030   -2.9440   -2.0480 c3        1 MOL     -0.423463
    118 O18         4.1590   -0.9410   -1.3680 oh        1 MOL     -0.319184
    119 H53         2.2920   -1.5310    0.3350 hn        1 MOL      0.135603
    120 H54         4.3900   -3.6740    0.4070 h1        1 MOL      0.066762
    121 H55         5.0620   -2.7550   -1.5400 h1        1 MOL      0.032594
    122 H56         3.7440   -0.8070   -2.2280 ho        1 MOL      0.352623
    123 H57         2.2120   -2.1990   -2.0660 hc        1 MOL      0.139310
    124 H58         3.2950   -3.0650   -3.0960 hc        1 MOL      0.139310
    125 H59         2.8210   -3.9360   -1.6520 hc        1 MOL      0.139310
    126 N11         6.5070   -2.2550    0.6370 n         1 MOL     -0.440875
    127 C39         7.6860   -1.4160    0.9600 c3        1 MOL     -0.043018
    128 C40         7.5200   -0.0070    0.4240 c         1 MOL      0.226817
    129 O19         7.8760    0.9540    1.0640 o         1 MOL     -0.468186
    130 C41         9.0310   -1.9400    0.5330 c3        1 MOL      0.355030
    131 C42         9.6010   -2.9890    1.4790 c3        1 MOL     -0.525489
    132 O20         9.2850   -2.4140   -0.8280 oh        1 MOL     -0.639614
    133 H60         6.6410   -3.0020   -0.0290 hn        1 MOL      0.310452
    134 H61         7.7000   -1.3830    2.0560 h1        1 MOL      0.147252
    135 H62         9.7260   -1.1180    0.6540 h1        1 MOL      0.027690
    136 H63        10.1820   -2.1210   -1.0410 ho        1 MOL      0.395105
    137 H64        10.6910   -3.0180    1.4600 hc        1 MOL      0.145733
    138 H65         9.2580   -2.7110    2.4760 hc        1 MOL      0.145733
    139 H66         9.1980   -3.9840    1.2690 hc        1 MOL      0.145733
    140 N12         7.0030    0.1220   -0.8210 n         1 MOL      0.042593
    141 C43         6.8560    1.4330   -1.4960 c3        1 MOL     -0.107022
    142 C44         5.8860    2.4090   -0.9070 c         1 MOL      0.326792
    143 O21         6.1130    3.6480   -1.0240 o         1 MOL     -0.513869
    144 C45         6.5790    1.2740   -2.9770 c3        1 MOL     -0.348653
    145 C46         7.5160    0.2900   -3.7140 c3        1 MOL     -0.045008
    146 C47         8.9630    0.6600   -3.5590 c3        1 MOL     -0.147352
    147 C48         9.7340   -0.3270   -4.5610 c3        1 MOL      0.021728
    148 N13        11.2020   -0.0260   -4.5600 n4        1 MOL     -0.345276
    149 H67         6.5110   -0.6370   -1.2740 hn        1 MOL      0.144365
    150 H68         7.8200    1.9420   -1.3960 h1        1 MOL      0.113064
    151 H69         6.6230    2.2110   -3.5310 hc        1 MOL      0.158996
    152 H70         5.5770    0.8380   -3.0850 hc        1 MOL      0.158996
    153 H71         7.2670    0.3730   -4.7700 hc        1 MOL      0.026214
    154 H72         7.3630   -0.7470   -3.3860 hc        1 MOL      0.026214
    155 H73         9.2060    0.5020   -2.5100 hc        1 MOL      0.098285
    156 H74         9.0230    1.6830   -3.9040 hc        1 MOL      0.098285
    157 H75         9.3820   -0.2230   -5.5870 hx        1 MOL      0.103047
    158 H76         9.5730   -1.3750   -4.3010 hx        1 MOL      0.103047
    159 H77        11.5760    0.0900   -3.6250 hn        1 MOL      0.295397
    160 H78        11.6950   -0.6700   -5.1670 hn        1 MOL      0.295397
    161 H79        11.2790    0.8300   -5.0840 hn        1 MOL      0.295397
    162 N14         4.8940    1.8630   -0.2000 n         1 MOL      0.038079
    163 C49         3.8500    2.5590    0.5890 c3        1 MOL     -0.151054
    164 C50         4.3740    2.8580    1.9850 c         1 MOL      0.415261
    165 O22         4.1950    3.9830    2.5420 o         1 MOL     -0.542140
    166 C51         2.5900    1.6760    0.6010 c3        1 MOL      0.066472
    167 C52         1.9400    1.6140   -0.8200 c3        1 MOL     -0.094774
    168 C53         0.5620    0.8880   -0.8210 c         1 MOL      0.760357
    169 O23         0.4840   -0.2930   -0.5390 o         1 MOL     -0.726694
    170 O24        -0.4530    1.4890   -1.1950 o         1 MOL     -0.726694
    171 H80         4.9140    0.8590   -0.2970 hn        1 MOL     -0.024082
    172 H81         3.6480    3.5670    0.2080 h1        1 MOL      0.127677
    173 H82         1.8060    2.2210    1.1370 hc        1 MOL      0.043192
    174 H83         2.6910    0.6680    1.0050 hc        1 MOL      0.043192
    175 H84         2.5710    1.0420   -1.5070 hc        1 MOL     -0.021857
    176 H85         1.8200    2.6190   -1.2120 hc        1 MOL     -0.021857
    177 N15         5.1540    1.9240    2.5270 n         1 MOL     -0.036305
    178 C54         5.6530    2.0120    3.9420 c3        1 MOL     -0.295224
    179 H86         6.5130    2.6800    3.9830 h1        1 MOL      0.112114
    180 H87         4.8620    2.4000    4.5830 h1        1 MOL      0.112114
    181 H88         5.9480    1.0210    4.2870 h1        1 MOL      0.112114
    182 H89         5.0570    1.0210    2.0900 hn        1 MOL      0.061075
    183 Ca1        -1.8430   -1.0780   -1.3680 Ca        1 MOL      1.773833
    184 O25        -0.2370   -3.2010   -1.8820 oh        1 MOL     -0.831471
    185 H90        -0.4660   -3.9420   -1.3190 ho        1 MOL      0.387245
    186 H91         0.1790   -3.5950   -2.6440 ho        1 MOL      0.387245
    187 O26        -0.0360   -0.4980   -3.7780 oh        1 MOL     -0.831471
    188 H92        -0.6850   -0.0170   -4.2900 ho        1 MOL      0.387245
    189 H93         0.6700   -0.6910   -4.4060 ho        1 MOL      0.387245
@<TRIPOS>BOND
     1    1    2 1   
     2    1    4 1   
     3    1    5 1   
     4    1    6 1   
     5    2    3 2   
     6    2    7 1   
     7    7    8 1   
     8    7   15 1   
     9    8    9 1   
    10    8   11 1   
    11    8   16 1   
    12    9   10 2   
    13    9   19 1   
    14   11   12 1   
    15   11   17 1   
    16   11   18 1   
    17   12   13 1   
    18   12   14 1   
    19   19   20 1   
    20   19   28 1   
    21   20   21 1   
    22   20   23 1   
    23   20   29 1   
    24   21   22 2   
    25   21   41 1   
    26   23   24 1   
    27   23   30 1   
    28   23   31 1   
    29   24   25 1   
    30   24   32 1   
    31   24   33 1   
    32   25   26 1   
    33   25   34 1   
    34   25   35 1   
    35   26   27 1   
    36   26   36 1   
    37   26   37 1   
    38   27   38 1   
    39   27   39 1   
    40   27   40 1   
    41   41   42 1   
    42   41   49 1   
    43   42   43 1   
    44   42   45 1   
    45   42   50 1   
    46   43   44 2   
    47   43   53 1   
    48   45   46 1   
    49   45   51 1   
    50   45   52 1   
    51   46   47 1   
    52   46   48 1   
    53   53   54 1   
    54   53   57 1   
    55   54   55 1   
    56   54   58 1   
    57   54   59 1   
    58   55   56 2   
    59   55   60 1   
    60   60   61 1   
    61   60   68 1   
    62   61   62 1   
    63   61   64 1   
    64   61   69 1   
    65   62   63 2   
    66   62   72 1   
    67   64   65 1   
    68   64   70 1   
    69   64   71 1   
    70   65   66 1   
    71   65   67 1   
    72   72   73 1   
    73   72   76 1   
    74   73   74 1   
    75   73   77 1   
    76   73   78 1   
    77   74   75 2   
    78   74   79 1   
    79   79   80 1   
    80   79   86 1   
    81   80   81 1   
    82   80   83 1   
    83   80   87 1   
    84   81   82 2   
    85   81   93 1   
    86   83   84 1   
    87   83   85 1   
    88   83   88 1   
    89   84   90 1   
    90   84   91 1   
    91   84   92 1   
    92   85   89 1   
    93   93   94 1   
    94   93  101 1   
    95   94   95 1   
    96   94   97 1   
    97   94  102 1   
    98   95   96 2   
    99   95  112 1   
   100   97   98 1   
   101   97   99 1   
   102   97  103 1   
   103   98  100 1   
   104   98  104 1   
   105   98  105 1   
   106   99  106 1   
   107   99  107 1   
   108   99  108 1   
   109  100  109 1   
   110  100  110 1   
   111  100  111 1   
   112  112  113 1   
   113  112  119 1   
   114  113  114 1   
   115  113  116 1   
   116  113  120 1   
   117  114  115 2   
   118  114  126 1   
   119  116  117 1   
   120  116  118 1   
   121  116  121 1   
   122  117  123 1   
   123  117  124 1   
   124  117  125 1   
   125  118  122 1   
   126  126  127 1   
   127  126  133 1   
   128  127  128 1   
   129  127  130 1   
   130  127  134 1   
   131  128  129 2   
   132  128  140 1   
   133  130  131 1   
   134  130  132 1   
   135  130  135 1   
   136  131  137 1   
   137  131  138 1   
   138  131  139 1   
   139  132  136 1   
   140  140  141 1   
   141  140  149 1   
   142  141  142 1   
   143  141  144 1   
   144  141  150 1   
   145  142  143 2   
   146  142  162 1   
   147  144  145 1   
   148  144  151 1   
   149  144  152 1   
   150  145  146 1   
   151  145  153 1   
   152  145  154 1   
   153  146  147 1   
   154  146  155 1   
   155  146  156 1   
   156  147  148 1   
   157  147  157 1   
   158  147  158 1   
   159  148  159 1   
   160  148  160 1   
   161  148  161 1   
   162  162  163 1   
   163  162  171 1   
   164  163  164 1   
   165  163  166 1   
   166  163  172 1   
   167  164  165 2   
   168  164  177 1   
   169  166  167 1   
   170  166  173 1   
   171  166  174 1   
   172  167  168 1   
   173  167  175 1   
   174  167  176 1   
   175  168  169 1   
   176  168  170 1   
   177  177  178 1   
   178  177  182 1   
   179  178  179 1   
   180  178  180 1   
   181  178  181 1   
   182  184  185 1   
   183  184  186 1   
   184  187  188 1   
   185  187  189 1   
@<TRIPOS>SUBSTRUCTURE
     1 MOL         1 TEMP              0 ****  ****    0 ROOT
