@<TRIPOS>MOLECULE
MOL
  179   176     1     0     0
SMALL
resp


@<TRIPOS>ATOM
      1 C1          2.3000    3.6360    3.8710 c3        1 MOL     -0.257347
      2 C2          1.3340    3.4610    2.6320 c         1 MOL      0.538504
      3 O1          1.7370    3.4980    1.4530 o         1 MOL     -0.589155
      4 H1          2.2080    4.6500    4.2610 hc        1 MOL      0.073700
      5 H2          2.0280    2.9230    4.6480 hc        1 MOL      0.073700
      6 H3          3.3290    3.4600    3.5590 hc        1 MOL      0.073700
      7 N1          0.0920    3.1530    2.8620 n         1 MOL     -0.563692
      8 C3         -0.9170    2.7870    1.8550 c3        1 MOL      0.166031
      9 C4         -1.6530    4.0000    1.3240 c         1 MOL      0.562139
     10 O2         -2.7740    4.2940    1.8180 o         1 MOL     -0.476303
     11 C5         -1.8530    1.7860    2.4820 c3        1 MOL     -0.044958
     12 C6         -2.9530    1.2820    1.5930 c         1 MOL      0.422805
     13 O3         -3.9610    0.8420    2.1390 o         1 MOL     -0.530745
     14 O4         -2.8740    1.2180    0.3530 o         1 MOL     -0.530745
     15 H4         -0.2460    2.9680    3.8020 hn        1 MOL      0.320299
     16 H5         -0.3910    2.2990    1.0350 h1        1 MOL     -0.036824
     17 H6         -2.3430    2.1940    3.3640 hc        1 MOL      0.032578
     18 H7         -1.2890    0.8820    2.7350 hc        1 MOL      0.032578
     19 N2         -1.0160    4.8780    0.5470 n         1 MOL     -0.446963
     20 C7         -1.6090    6.1540    0.1590 c3        1 MOL     -0.046069
     21 C8         -2.7290    6.0250   -0.8530 c         1 MOL      0.481283
     22 O5         -3.5860    6.9130   -0.9430 o         1 MOL     -0.527325
     23 C9         -0.4610    7.1000   -0.3510 c3        1 MOL     -0.127553
     24 C10         0.7000    7.2930    0.6450 c3        1 MOL      0.307797
     25 C11         1.9030    7.8480   -0.1260 c3        1 MOL     -0.358403
     26 C12         3.1110    8.3030    0.6670 c3        1 MOL      0.198740
     27 N3          3.7290    7.2350    1.5020 n4        1 MOL     -0.493749
     28 H8         -0.1150    4.5880    0.2170 hn        1 MOL      0.369273
     29 H9         -1.9530    6.7110    1.0290 h1        1 MOL      0.110521
     30 H10        -0.9550    8.0070   -0.6960 hc        1 MOL      0.054820
     31 H11         0.0690    6.6500   -1.1920 hc        1 MOL      0.054820
     32 H12         1.0100    6.3620    1.1100 hc        1 MOL     -0.053754
     33 H13         0.4220    7.9450    1.4700 hc        1 MOL     -0.053754
     34 H14         1.6380    8.7910   -0.5890 hc        1 MOL      0.112186
     35 H15         2.2340    7.0620   -0.8100 hc        1 MOL      0.112186
     36 H16         2.8550    9.0970    1.3570 hx        1 MOL      0.055148
     37 H17         3.8640    8.7790    0.0240 hx        1 MOL      0.055148
     38 H18         3.0840    6.9190    2.2080 hn        1 MOL      0.363477
     39 H19         3.9600    6.4900    0.8470 hn        1 MOL      0.363477
     40 H20         4.6000    7.5770    1.8850 hn        1 MOL      0.363477
     41 N4         -2.8040    4.9050   -1.6440 n         1 MOL     -0.413085
     42 C13        -4.0140    4.4770   -2.4470 c3        1 MOL      0.131172
     43 C14        -5.0350    3.8770   -1.5040 c         1 MOL      0.434371
     44 O6         -6.2070    3.8160   -1.9210 o         1 MOL     -0.542045
     45 C15        -3.6170    3.3790   -3.4460 c3        1 MOL     -0.392964
     46 C16        -2.8830    2.1960   -2.8940 c         1 MOL      0.847506
     47 O7         -1.9130    2.4290   -2.1240 o         1 MOL     -0.766053
     48 O8         -3.3580    1.0480   -3.1310 o         1 MOL     -0.766053
     49 H21        -2.1120    4.1750   -1.5840 hn        1 MOL      0.259394
     50 H22        -4.5050    5.3120   -2.9510 h1        1 MOL      0.088253
     51 H23        -3.0180    3.8140   -4.2520 hc        1 MOL      0.102189
     52 H24        -4.5070    2.9600   -3.8910 hc        1 MOL      0.102189
     53 N5         -4.6630    3.5780   -0.2390 n         1 MOL     -0.006057
     54 C17        -5.6500    3.1170    0.7650 c3        1 MOL     -0.051551
     55 C18        -6.4180    1.8650    0.3020 c         1 MOL      0.446947
     56 O9         -7.6770    1.8440    0.4340 o         1 MOL     -0.590109
     57 H25        -3.6900    3.5110    0.0340 hn        1 MOL     -0.059618
     58 H26        -6.3380    3.9310    0.9770 h1        1 MOL      0.074230
     59 H27        -5.1860    2.7950    1.6970 h1        1 MOL      0.074230
     60 N6         -5.7630    0.8450   -0.1830 n         1 MOL     -0.012754
     61 C19        -6.3680   -0.4210   -0.7190 c3        1 MOL     -0.014829
     62 C20        -6.3020   -1.5400    0.3630 c         1 MOL      0.228858
     63 O10        -6.9360   -2.5940    0.1500 o         1 MOL     -0.464131
     64 C21        -5.8100   -0.7890   -2.0720 c3        1 MOL     -0.268337
     65 C22        -4.5190   -1.5900   -2.0230 c         1 MOL      0.716364
     66 N7         -4.4100   -2.5230   -2.9010 n         1 MOL     -0.782481
     67 O11        -3.6700   -1.4640   -1.1470 o         1 MOL     -0.709079
     68 H28        -4.7530    0.9060   -0.1490 hn        1 MOL     -0.026607
     69 H29        -7.4290   -0.2000   -0.8580 h1        1 MOL      0.129419
     70 H30        -5.6140    0.0940   -2.6740 hc        1 MOL      0.114571
     71 H31        -6.5640   -1.3840   -2.5760 hc        1 MOL      0.114571
     72 H32        -5.2470   -2.6550   -3.4420 hn        1 MOL      0.371717
     73 H33        -3.6950   -3.2370   -2.8190 hn        1 MOL      0.371717
     74 N8         -5.5760   -1.4270    1.5030 n         1 MOL      0.005026
     75 C23        -5.5310   -2.4090    2.6180 c3        1 MOL     -0.278683
     76 C24        -4.2140   -3.2420    2.6140 c         1 MOL      0.647262
     77 O12        -3.9990   -4.0650    3.5230 o         1 MOL     -0.596465
     78 H34        -5.0550   -0.5740    1.6440 hn        1 MOL      0.072528
     79 H35        -6.4120   -3.0380    2.7150 h1        1 MOL      0.128386
     80 H36        -5.4230   -1.8300    3.5310 h1        1 MOL      0.128386
     81 N9         -3.3830   -2.9800    1.6110 n         1 MOL     -0.526231
     82 C25        -2.0990   -3.6390    1.3240 c3        1 MOL      0.227762
     83 C26        -1.0190   -2.6190    1.1610 c         1 MOL      0.634537
     84 O13        -1.2640   -1.4370    0.7920 o         1 MOL     -0.716879
     85 C27        -2.2850   -4.5890    0.1930 c3        1 MOL     -0.077940
     86 C28        -3.4480   -5.5990    0.2140 ca        1 MOL     -0.066325
     87 C29        -4.7960   -5.0680    0.0360 ca        1 MOL     -0.043471
     88 C30        -3.2460   -6.9920    0.3000 ca        1 MOL     -0.043471
     89 C31        -5.8930   -5.9630   -0.0990 ca        1 MOL     -0.414666
     90 C32        -4.3740   -7.8800    0.0670 ca        1 MOL     -0.414666
     91 C33        -5.7020   -7.3470   -0.0280 ca        1 MOL      0.491041
     92 O14        -6.8000   -8.0670   -0.1350 oh        1 MOL     -0.456872
     93 H37        -3.7980   -2.5150    0.8180 hn        1 MOL      0.532107
     94 H38        -1.8050   -4.1600    2.2410 h1        1 MOL      0.016629
     95 H39        -1.3980   -5.1810   -0.0540 hc        1 MOL      0.012442
     96 H40        -2.4930   -4.0210   -0.7160 hc        1 MOL      0.012442
     97 H41        -4.9790   -4.0340   -0.1920 ha        1 MOL      0.099173
     98 H42        -2.2340   -7.3120    0.4260 ha        1 MOL      0.099173
     99 H43        -6.9060   -5.6170   -0.2780 ha        1 MOL      0.163845
    100 H44        -4.2670   -8.9600    0.0990 ha        1 MOL      0.163845
    101 H45        -6.6190   -9.0050    0.0020 ho        1 MOL      0.341367
    102 N10         0.1870   -3.0600    1.4300 n         1 MOL     -0.658764
    103 C34         1.4490   -2.3960    1.0330 c3        1 MOL      0.188936
    104 C35         2.4060   -3.3890    0.3300 c         1 MOL      0.413679
    105 O15         2.5610   -4.4610    0.7500 o         1 MOL     -0.512107
    106 C36         2.0520   -1.7260    2.2810 c3        1 MOL      0.149854
    107 C37         2.0920   -2.6060    3.5760 c3        1 MOL     -0.096054
    108 C38         1.2100   -0.4980    2.5890 c3        1 MOL     -1.010299
    109 C39         3.5100   -2.8550    4.0620 c3        1 MOL     -0.116783
    110 H46         0.3130   -3.9310    1.9160 hn        1 MOL      0.340019
    111 H47         1.1800   -1.5070    0.4420 h1        1 MOL      0.070544
    112 H48         3.0730   -1.4200    2.0310 hc        1 MOL      0.007219
    113 H49         1.7040   -3.5950    3.3610 hc        1 MOL      0.065990
    114 H50         1.5360   -2.1760    4.4090 hc        1 MOL      0.065990
    115 H51         0.2270   -0.7610    2.9920 hc        1 MOL      0.302795
    116 H52         1.7790    0.1550    3.2520 hc        1 MOL      0.302795
    117 H53         1.0430    0.0540    1.6690 hc        1 MOL      0.302795
    118 H54         4.1930   -3.1660    3.2790 hc        1 MOL      0.025113
    119 H55         3.8760   -1.9580    4.5680 hc        1 MOL      0.025113
    120 H56         3.5140   -3.5850    4.8780 hc        1 MOL      0.025113
    121 N11         3.0620   -2.9420   -0.7050 n         1 MOL     -0.221544
    122 C40         4.1610   -3.5520   -1.3830 c3        1 MOL      0.142989
    123 C41         5.4830   -3.3260   -0.5830 c         1 MOL      0.307767
    124 O16         5.4910   -2.6360    0.4320 o         1 MOL     -0.273872
    125 C42         4.3140   -2.9990   -2.8310 c3        1 MOL     -0.429239
    126 O17         4.9160   -1.7460   -2.6630 oh        1 MOL     -0.163473
    127 H57         2.5850   -2.1490   -1.1220 hn        1 MOL      0.214015
    128 H58         3.9350   -4.6100   -1.4260 h1        1 MOL      0.052330
    129 H59         3.3600   -2.7710   -3.3090 h1        1 MOL      0.167021
    130 H60         4.9900   -3.6380   -3.4110 h1        1 MOL      0.167021
    131 H61         5.2120   -1.3320   -3.4830 ho        1 MOL      0.311961
    132 N12         6.6450   -3.8610   -0.9810 n         1 MOL     -0.432752
    133 C43         8.0370   -3.5670   -0.4260 c3        1 MOL      0.152270
    134 C44         8.5120   -2.1300   -0.7860 c         1 MOL      0.422380
    135 O18         9.3650   -1.5920   -0.1260 o         1 MOL     -0.471078
    136 C45         9.0560   -4.5620   -0.9810 c3        1 MOL     -0.234018
    137 H62         6.5860   -4.4580   -1.7880 hn        1 MOL      0.277198
    138 H63         8.0110   -3.5550    0.6590 h1        1 MOL      0.064029
    139 H64         8.7210   -5.6040   -0.8920 hc        1 MOL      0.080426
    140 H65         9.1590   -4.3230   -2.0330 hc        1 MOL      0.080426
    141 H66        10.0300   -4.4790   -0.5030 hc        1 MOL      0.080426
    142 N13         7.9060   -1.5210   -1.8500 n         1 MOL     -0.356095
    143 C46         8.0750   -0.1390   -2.1730 c3        1 MOL      0.175091
    144 C47         7.3670    0.7960   -1.1590 c         1 MOL      0.310932
    145 O19         7.9390    1.7410   -0.6490 o         1 MOL     -0.483673
    146 C48         7.8060    0.1680   -3.6470 c3        1 MOL     -0.294071
    147 H67         7.1750   -1.9060   -2.4470 hn        1 MOL      0.183876
    148 H68         9.1040    0.0960   -1.8890 h1        1 MOL      0.059126
    149 H69         6.7500    0.3320   -3.8400 hc        1 MOL      0.080931
    150 H70         8.3020    1.1280   -3.8090 hc        1 MOL      0.080931
    151 H71         8.2400   -0.5390   -4.3430 hc        1 MOL      0.080931
    152 N14         6.1130    0.4290   -0.8180 n         1 MOL      0.095169
    153 C49         5.1980    1.1870    0.0410 c3        1 MOL     -0.251636
    154 C50         5.7740    1.1600    1.4940 c         1 MOL      0.453797
    155 O20         5.8220    2.2090    2.1350 o         1 MOL     -0.554241
    156 C51         3.7890    0.5320   -0.0060 c3        1 MOL      0.158064
    157 C52         3.0620    0.9400   -1.2880 c3        1 MOL     -0.101464
    158 C53         1.6740    0.3980   -1.2800 c         1 MOL      0.735499
    159 O21         1.4520   -0.7320   -1.7740 o         1 MOL     -0.718968
    160 O22         0.7650    1.0830   -0.7920 o         1 MOL     -0.718968
    161 H72         5.7290   -0.4150   -1.2360 hn        1 MOL     -0.120967
    162 H73         5.0650    2.1950   -0.3520 h1        1 MOL      0.124168
    163 H74         3.2420    0.7520    0.9110 hc        1 MOL      0.026349
    164 H75         3.8610   -0.5520    0.0640 hc        1 MOL      0.026349
    165 H76         3.5760    0.4450   -2.1040 hc        1 MOL     -0.019697
    166 H77         3.1460    2.0170   -1.3940 hc        1 MOL     -0.019697
    167 N15         6.2650    0.0190    1.9450 n         1 MOL     -0.089804
    168 C54         6.9800   -0.1900    3.2360 c3        1 MOL     -0.296946
    169 H78         6.9660    0.7340    3.8120 h1        1 MOL      0.120519
    170 H79         6.4840   -0.9790    3.8030 h1        1 MOL      0.120519
    171 H80         8.0130   -0.4790    3.0370 h1        1 MOL      0.120519
    172 H81         5.9510   -0.8280    1.5000 hn        1 MOL      0.109039
    173 Ca1        -1.4540   -0.0610   -1.3740 Ca        1 MOL      1.766614
    174 O23        -0.9650   -2.4860   -2.2900 oh        1 MOL     -0.806559
    175 H82        -0.0950   -2.7970   -2.5270 ho        1 MOL      0.395355
    176 H83        -1.5720   -3.0550   -2.7740 ho        1 MOL      0.395355
    177 O24        -0.8510    0.0480   -4.0460 oh        1 MOL     -0.806559
    178 H84        -0.6900    0.7840   -4.6320 ho        1 MOL      0.395355
    179 H85        -1.2920   -0.6060   -4.5940 ho        1 MOL      0.395355
@<TRIPOS>BOND
     1    1    2 1   
     2    1    4 1   
     3    1    5 1   
     4    1    6 1   
     5    2    3 2   
     6    2    7 1   
     7    7    8 1   
     8    7   15 1   
     9    8    9 1   
    10    8   11 1   
    11    8   16 1   
    12    9   10 2   
    13    9   19 1   
    14   11   12 1   
    15   11   17 1   
    16   11   18 1   
    17   12   13 1   
    18   12   14 1   
    19   19   20 1   
    20   19   28 1   
    21   20   21 1   
    22   20   23 1   
    23   20   29 1   
    24   21   22 2   
    25   21   41 1   
    26   23   24 1   
    27   23   30 1   
    28   23   31 1   
    29   24   25 1   
    30   24   32 1   
    31   24   33 1   
    32   25   26 1   
    33   25   34 1   
    34   25   35 1   
    35   26   27 1   
    36   26   36 1   
    37   26   37 1   
    38   27   38 1   
    39   27   39 1   
    40   27   40 1   
    41   41   42 1   
    42   41   49 1   
    43   42   43 1   
    44   42   45 1   
    45   42   50 1   
    46   43   44 2   
    47   43   53 1   
    48   45   46 1   
    49   45   51 1   
    50   45   52 1   
    51   46   47 1   
    52   46   48 1   
    53   53   54 1   
    54   53   57 1   
    55   54   55 1   
    56   54   58 1   
    57   54   59 1   
    58   55   56 2   
    59   55   60 1   
    60   60   61 1   
    61   60   68 1   
    62   61   62 1   
    63   61   64 1   
    64   61   69 1   
    65   62   63 2   
    66   62   74 1   
    67   64   65 1   
    68   64   70 1   
    69   64   71 1   
    70   65   66 1   
    71   65   67 2   
    72   66   72 1   
    73   66   73 1   
    74   74   75 1   
    75   74   78 1   
    76   75   76 1   
    77   75   79 1   
    78   75   80 1   
    79   76   77 2   
    80   76   81 1   
    81   81   82 1   
    82   81   93 1   
    83   82   83 1   
    84   82   85 1   
    85   82   94 1   
    86   83   84 2   
    87   83  102 1   
    88   85   86 1   
    89   85   95 1   
    90   85   96 1   
    91   86   87 ar  
    92   86   88 ar  
    93   87   89 ar  
    94   87   97 1   
    95   88   90 ar  
    96   88   98 1   
    97   89   91 ar  
    98   89   99 1   
    99   90   91 ar  
   100   90  100 1   
   101   91   92 1   
   102   92  101 1   
   103  102  103 1   
   104  102  110 1   
   105  103  104 1   
   106  103  106 1   
   107  103  111 1   
   108  104  105 2   
   109  104  121 1   
   110  106  107 1   
   111  106  108 1   
   112  106  112 1   
   113  107  109 1   
   114  107  113 1   
   115  107  114 1   
   116  108  115 1   
   117  108  116 1   
   118  108  117 1   
   119  109  118 1   
   120  109  119 1   
   121  109  120 1   
   122  121  122 1   
   123  121  127 1   
   124  122  123 1   
   125  122  125 1   
   126  122  128 1   
   127  123  124 2   
   128  123  132 1   
   129  125  126 1   
   130  125  129 1   
   131  125  130 1   
   132  126  131 1   
   133  132  133 1   
   134  132  137 1   
   135  133  134 1   
   136  133  136 1   
   137  133  138 1   
   138  134  135 2   
   139  134  142 1   
   140  136  139 1   
   141  136  140 1   
   142  136  141 1   
   143  142  143 1   
   144  142  147 1   
   145  143  144 1   
   146  143  146 1   
   147  143  148 1   
   148  144  145 2   
   149  144  152 1   
   150  146  149 1   
   151  146  150 1   
   152  146  151 1   
   153  152  153 1   
   154  152  161 1   
   155  153  154 1   
   156  153  156 1   
   157  153  162 1   
   158  154  155 2   
   159  154  167 1   
   160  156  157 1   
   161  156  163 1   
   162  156  164 1   
   163  157  158 1   
   164  157  165 1   
   165  157  166 1   
   166  158  159 1   
   167  158  160 1   
   168  167  168 1   
   169  167  172 1   
   170  168  169 1   
   171  168  170 1   
   172  168  171 1   
   173  174  175 1   
   174  174  176 1   
   175  177  178 1   
   176  177  179 1   
@<TRIPOS>SUBSTRUCTURE
     1 MOL         1 TEMP              0 ****  ****    0 ROOT
