@<TRIPOS>MOLECULE
MOL
  186   183     1     0     0
SMALL
resp


@<TRIPOS>ATOM
      1 C1         -0.7530    1.4800    6.3040 c3        1 MOL     -0.396329
      2 C2         -1.0520    1.4960    4.8460 c         1 MOL      0.783746
      3 O1         -0.2290    1.8970    4.0760 o         1 MOL     -0.594045
      4 H1         -0.0580    0.6690    6.5220 hc        1 MOL      0.087622
      5 H2         -0.3030    2.4310    6.5920 hc        1 MOL      0.087622
      6 H3         -1.6760    1.3290    6.8630 hc        1 MOL      0.087622
      7 N1         -2.2340    1.1690    4.4490 n         1 MOL     -0.561689
      8 C3         -2.6910    1.2950    3.0510 c3        1 MOL      0.280654
      9 C4         -3.1010    2.7100    2.7300 c         1 MOL      0.418976
     10 O2         -3.9510    3.2600    3.4050 o         1 MOL     -0.550352
     11 C5         -3.8900    0.3830    2.9570 c3        1 MOL     -0.359120
     12 C6         -4.6110    0.5350    1.6210 c         1 MOL      0.957810
     13 O3         -5.8560    0.3630    1.6150 o         1 MOL     -0.700991
     14 O4         -3.9970    0.9510    0.6320 o         1 MOL     -0.700991
     15 H4         -2.9340    0.8510    5.1030 hn        1 MOL      0.298719
     16 H5         -1.8950    0.9770    2.3880 h1        1 MOL     -0.047892
     17 H6         -4.5710    0.7200    3.7400 hc        1 MOL      0.052494
     18 H7         -3.6890   -0.6760    3.0830 hc        1 MOL      0.052494
     19 N2         -2.4360    3.2840    1.7120 n         1 MOL     -0.180890
     20 C7         -2.5540    4.7030    1.2270 c3        1 MOL     -0.132532
     21 C8         -3.4760    4.9050   -0.0210 c         1 MOL      0.560302
     22 O5         -3.8770    6.0670   -0.3130 o         1 MOL     -0.578629
     23 C9         -1.1920    5.4420    1.1040 c3        1 MOL      0.307380
     24 C10        -0.2840    5.1020    2.3440 c3        1 MOL      0.323876
     25 C11        -1.0630    6.9790    0.7190 c3        1 MOL     -0.366240
     26 C12         1.1850    5.6050    2.3030 c3        1 MOL     -0.176538
     27 H8         -1.8190    2.7550    1.1160 hn        1 MOL      0.099345
     28 H9         -3.1540    5.2080    1.9790 h1        1 MOL      0.058884
     29 H10        -0.7630    4.9910    0.2070 hc        1 MOL     -0.012905
     30 H11        -0.3060    4.0580    2.6470 hc        1 MOL     -0.114694
     31 H12        -0.7590    5.6540    3.1460 hc        1 MOL     -0.114694
     32 H13        -1.5060    7.5580    1.5300 hc        1 MOL      0.065514
     33 H14        -0.0490    7.2990    0.5060 hc        1 MOL      0.065514
     34 H15        -1.6380    7.2230   -0.1740 hc        1 MOL      0.065514
     35 H16         1.6930    5.4850    3.2650 hc        1 MOL      0.027373
     36 H17         1.6720    5.0730    1.4850 hc        1 MOL      0.027373
     37 H18         1.3020    6.6600    2.0950 hc        1 MOL      0.027373
     38 N3         -4.0040    3.8130   -0.6630 n         1 MOL     -0.372854
     39 C13        -4.9720    3.9800   -1.7770 c3        1 MOL     -0.018856
     40 C14        -6.2100    3.1030   -1.6960 c         1 MOL      0.405948
     41 O6         -6.9870    3.0660   -2.6770 o         1 MOL     -0.539259
     42 C15        -4.1680    3.8420   -3.1390 c3        1 MOL     -0.094853
     43 C16        -3.3140    2.6060   -3.2980 c         1 MOL      0.755706
     44 O7         -3.5370    1.5170   -2.6670 o         1 MOL     -0.716384
     45 O8         -2.2590    2.7180   -3.9720 o         1 MOL     -0.716384
     46 H19        -3.5600    2.9330   -0.4480 hn        1 MOL      0.263576
     47 H20        -5.3190    5.0160   -1.7660 h1        1 MOL      0.095495
     48 H21        -3.4880    4.6890   -3.1440 hc        1 MOL      0.025604
     49 H22        -4.8590    3.9000   -3.9880 hc        1 MOL      0.025604
     50 N4         -6.4670    2.3720   -0.6610 n         1 MOL     -0.208287
     51 C17        -7.8720    1.8310   -0.3870 c3        1 MOL     -0.043236
     52 C18        -8.2430    0.4070   -0.8670 c         1 MOL      0.388163
     53 O9         -9.3900    0.1540   -1.3580 o         1 MOL     -0.579727
     54 H23        -5.7330    2.2560    0.0130 hn        1 MOL      0.155528
     55 H24        -8.5800    2.5910   -0.7190 h1        1 MOL      0.062825
     56 H25        -7.9110    1.8870    0.7020 h1        1 MOL      0.062825
     57 N5         -7.2380   -0.4240   -0.7890 n         1 MOL     -0.032523
     58 C19        -7.3580   -1.8080   -1.2090 c3        1 MOL     -0.043317
     59 C20        -7.1320   -2.8320   -0.1110 c         1 MOL      0.362253
     60 O10        -7.1040   -4.0420   -0.3090 o         1 MOL     -0.502057
     61 C21        -6.4310   -2.1250   -2.4310 c3        1 MOL      0.057930
     62 C22        -5.0310   -1.6510   -2.1120 c         1 MOL      0.542213
     63 O11        -4.3760   -1.1050   -2.9630 o         1 MOL     -0.677660
     64 O12        -4.4860   -1.7860   -0.9710 o         1 MOL     -0.677660
     65 H26        -6.3910   -0.1240   -0.3340 hn        1 MOL      0.090959
     66 H27        -8.3340   -1.9790   -1.6610 h1        1 MOL      0.077954
     67 H28        -6.7560   -1.6640   -3.3580 hc        1 MOL      0.007818
     68 H29        -6.5270   -3.1970   -2.6340 hc        1 MOL      0.007818
     69 N6         -6.7700   -2.3220    1.1260 n         1 MOL     -0.264612
     70 C23        -6.5080   -3.2410    2.2200 c3        1 MOL     -0.078693
     71 C24        -5.2480   -4.0580    2.1550 c         1 MOL      0.515006
     72 O13        -5.0510   -4.9120    2.9990 o         1 MOL     -0.608699
     73 H30        -6.6440   -1.3270    1.2440 hn        1 MOL      0.196494
     74 H31        -7.3480   -3.9420    2.2160 h1        1 MOL      0.068959
     75 H32        -6.5800   -2.6970    3.1580 h1        1 MOL      0.068959
     76 N7         -4.3280   -3.8460    1.2100 n         1 MOL     -0.071519
     77 C25        -2.9880   -4.3970    1.1980 c3        1 MOL     -0.025575
     78 C26        -1.8590   -3.3700    1.1240 c         1 MOL      0.643880
     79 O14        -2.0270   -2.2480    0.6430 o         1 MOL     -0.728815
     80 C27        -2.8320   -5.4360    0.0460 c3        1 MOL     -0.214530
     81 C28        -3.1810   -4.8990   -1.3840 c3        1 MOL     -0.157916
     82 C29        -2.9880   -5.9860   -2.4700 c         1 MOL      0.713852
     83 N8         -2.8710   -5.6270   -3.6820 n         1 MOL     -0.789756
     84 O15        -2.8720   -7.2030   -2.2180 o         1 MOL     -0.605896
     85 H33        -4.5700   -3.0350    0.6510 hn        1 MOL      0.073996
     86 H34        -2.7630   -4.9330    2.1200 h1        1 MOL      0.037594
     87 H35        -3.4980   -6.2980    0.1540 hc        1 MOL      0.069384
     88 H36        -1.7870   -5.7490    0.0510 hc        1 MOL      0.069384
     89 H37        -2.4780   -4.0710   -1.4700 hc        1 MOL      0.078707
     90 H38        -4.1510   -4.4480   -1.5710 hc        1 MOL      0.078707
     91 H39        -2.9640   -4.6500   -3.9170 hn        1 MOL      0.351810
     92 H40        -2.4200   -6.2450   -4.3370 hn        1 MOL      0.351810
     93 N9         -0.6970   -3.6800    1.6730 n         1 MOL     -0.318098
     94 C30         0.4010   -2.7830    1.8850 c3        1 MOL      0.010616
     95 C31         1.6110   -3.0860    0.9610 c         1 MOL      0.271901
     96 O16         2.2710   -4.1040    1.0150 o         1 MOL     -0.541199
     97 C32         0.9350   -2.7470    3.3650 c3        1 MOL      0.137623
     98 C33         2.1330   -1.7810    3.4270 c3        1 MOL     -0.216670
     99 C34        -0.1000   -2.2120    4.3450 c3        1 MOL     -0.216670
    100 H41        -0.6320   -4.5880    2.0960 hn        1 MOL      0.244052
    101 H42         0.1440   -1.7380    1.7010 h1        1 MOL      0.180853
    102 H43         1.2710   -3.7250    3.7260 hc        1 MOL     -0.005672
    103 H44         2.4390   -1.7240    4.4720 hc        1 MOL      0.042930
    104 H45         2.9500   -2.2320    2.8620 hc        1 MOL      0.042930
    105 H46         1.8720   -0.7730    3.1210 hc        1 MOL      0.042930
    106 H47        -1.0210   -2.7990    4.3960 hc        1 MOL      0.042930
    107 H48         0.3430   -2.1610    5.3460 hc        1 MOL      0.042930
    108 H49        -0.3890   -1.1950    4.0780 hc        1 MOL      0.042930
    109 N10         1.8770   -2.1550    0.0690 n         1 MOL     -0.025292
    110 C35         2.9390   -2.2910   -0.9310 c3        1 MOL      0.048423
    111 C36         4.3150   -1.8380   -0.3480 c         1 MOL      0.244889
    112 O17         4.2400   -1.0860    0.6590 o         1 MOL     -0.242911
    113 C37         2.5880   -1.6270   -2.2180 c3        1 MOL     -0.262838
    114 C38         3.6260   -1.7090   -3.3040 c         1 MOL      0.657751
    115 N11         3.6550   -0.7470   -4.1460 n         1 MOL     -0.708749
    116 O18         4.4230   -2.5920   -3.4650 o         1 MOL     -0.588511
    117 H50         1.2100   -1.4060   -0.0750 hn        1 MOL      0.228175
    118 H51         3.0720   -3.3350   -1.2060 h1        1 MOL      0.054512
    119 H52         2.4340   -0.5640   -2.0340 hc        1 MOL      0.096168
    120 H53         1.6430   -2.0510   -2.5630 hc        1 MOL      0.096168
    121 H54         2.9530   -0.0130   -4.1470 hn        1 MOL      0.360666
    122 H55         4.4190   -0.7130   -4.8070 hn        1 MOL      0.360666
    123 N12         5.4470   -2.1390   -0.9180 n         1 MOL     -0.391892
    124 C39         6.7950   -1.9160   -0.3310 c3        1 MOL      0.199937
    125 C40         6.9840   -0.4100   -0.3880 c         1 MOL      0.751717
    126 O19         7.5070    0.0890    0.5810 o         1 MOL     -0.535982
    127 C41         7.9350   -2.7010   -0.9850 c3        1 MOL     -0.135633
    128 C42         9.3090   -2.3200   -0.3820 ca        1 MOL      0.020519
    129 C43         9.5890   -2.7830    0.8670 ca        1 MOL     -0.149962
    130 C44        10.1750   -1.4770   -1.0460 ca        1 MOL     -0.149962
    131 C45        10.7730   -2.2660    1.4650 ca        1 MOL     -0.296029
    132 C46        11.3380   -0.9680   -0.4490 ca        1 MOL     -0.296029
    133 C47        11.6370   -1.3820    0.8370 ca        1 MOL      0.377734
    134 O20        12.6780   -0.8280    1.4730 oh        1 MOL     -0.508129
    135 H56         5.3770   -2.6740   -1.7750 hn        1 MOL      0.233779
    136 H57         6.7480   -2.2290    0.7060 h1        1 MOL      0.051512
    137 H58         7.9920   -2.4420   -2.0430 hc        1 MOL      0.048191
    138 H59         7.8640   -3.7620   -0.8010 hc        1 MOL      0.048191
    139 H60         8.9410   -3.4780    1.3790 ha        1 MOL      0.138369
    140 H61         9.9390   -1.1880   -2.0580 ha        1 MOL      0.138369
    141 H62        11.0060   -2.4600    2.5050 ha        1 MOL      0.150720
    142 H63        11.9170   -0.2060   -0.9660 ha        1 MOL      0.150720
    143 H64        13.2020   -0.3340    0.8330 ho        1 MOL      0.364328
    144 N13         6.4110    0.3150   -1.3300 n         1 MOL     -0.754759
    145 C48         6.3110    1.7890   -1.4520 c3        1 MOL      0.125922
    146 C49         5.3660    2.3110   -0.3250 c         1 MOL      0.234872
    147 O21         5.6660    3.3620    0.2120 o         1 MOL     -0.477703
    148 C50         5.8650    2.1020   -2.8580 c3        1 MOL     -0.025397
    149 C51         5.3950    3.5250   -3.1880 c3        1 MOL     -0.260576
    150 C52         4.9070    3.6230   -4.6680 c         1 MOL      0.728871
    151 O22         4.0160    2.8270   -5.0740 o         1 MOL     -0.726331
    152 O23         5.3390    4.5640   -5.3790 o         1 MOL     -0.726331
    153 H65         5.9440   -0.2510   -2.0210 hn        1 MOL      0.332994
    154 H66         7.2910    2.1860   -1.1880 h1        1 MOL      0.094843
    155 H67         5.0360    1.4160   -3.0100 hc        1 MOL      0.006105
    156 H68         6.5710    1.8500   -3.6540 hc        1 MOL      0.006105
    157 H69         6.0880    4.2760   -2.7970 hc        1 MOL      0.060236
    158 H70         4.5310    3.6690   -2.5410 hc        1 MOL      0.060236
    159 N14         4.2900    1.6380    0.1490 n         1 MOL      0.000928
    160 C53         3.5460    2.0300    1.3610 c3        1 MOL     -0.272904
    161 C54         4.2820    1.6490    2.6230 c         1 MOL      0.515785
    162 O24         4.1670    2.4040    3.6410 o         1 MOL     -0.601423
    163 C55         2.1050    1.6320    1.2790 c3        1 MOL     -0.008024
    164 C56         1.3770    2.0680    0.0040 c3        1 MOL     -0.122962
    165 C57         0.0440    1.3740   -0.1420 c         1 MOL      0.746032
    166 O25        -0.9730    2.0790   -0.4940 o         1 MOL     -0.728239
    167 O26        -0.0200    0.1360   -0.1330 o         1 MOL     -0.728239
    168 H71         4.0510    0.7650   -0.3100 hn        1 MOL      0.185731
    169 H72         3.4640    3.1130    1.3130 h1        1 MOL      0.128618
    170 H73         1.6500    2.0780    2.1630 hc        1 MOL      0.073265
    171 H74         2.0310    0.5460    1.3200 hc        1 MOL      0.073265
    172 H75         1.9970    1.7930   -0.8460 hc        1 MOL      0.022828
    173 H76         1.1580    3.1290    0.1140 hc        1 MOL      0.022828
    174 N15         5.0860    0.6420    2.7080 n         1 MOL      0.012314
    175 C58         5.8120    0.2000    3.9010 c3        1 MOL     -0.245324
    176 H77         6.2780   -0.7650    3.7050 h1        1 MOL      0.089844
    177 H78         6.5810    0.9310    4.1490 h1        1 MOL      0.089844
    178 H79         5.1170    0.1050    4.7350 h1        1 MOL      0.089844
    179 H80         5.0070    0.0370    1.9070 hn        1 MOL     -0.058621
    180 Ca1        -2.4620   -0.2040   -1.1410 Ca        1 MOL      1.745282
    181 O27        -0.7220    0.5530   -3.1380 oh        1 MOL     -0.886450
    182 H81        -1.4700    1.0160   -3.5190 ho        1 MOL      0.410968
    183 H82        -0.0030    1.1840   -3.1590 ho        1 MOL      0.410968
    184 O28        -1.2690   -2.2450   -2.3280 oh        1 MOL     -0.886450
    185 H83        -1.9320   -2.5570   -2.9480 ho        1 MOL      0.410968
    186 H84        -0.4400   -2.3360   -2.8120 ho        1 MOL      0.410968
@<TRIPOS>BOND
     1    1    2 1   
     2    1    4 1   
     3    1    5 1   
     4    1    6 1   
     5    2    3 2   
     6    2    7 1   
     7    7    8 1   
     8    7   15 1   
     9    8    9 1   
    10    8   11 1   
    11    8   16 1   
    12    9   10 2   
    13    9   19 1   
    14   11   12 1   
    15   11   17 1   
    16   11   18 1   
    17   12   13 1   
    18   12   14 1   
    19   19   20 1   
    20   19   27 1   
    21   20   21 1   
    22   20   23 1   
    23   20   28 1   
    24   21   22 2   
    25   21   38 1   
    26   23   24 1   
    27   23   25 1   
    28   23   29 1   
    29   24   26 1   
    30   24   30 1   
    31   24   31 1   
    32   25   32 1   
    33   25   33 1   
    34   25   34 1   
    35   26   35 1   
    36   26   36 1   
    37   26   37 1   
    38   38   39 1   
    39   38   46 1   
    40   39   40 1   
    41   39   42 1   
    42   39   47 1   
    43   40   41 2   
    44   40   50 1   
    45   42   43 1   
    46   42   48 1   
    47   42   49 1   
    48   43   44 1   
    49   43   45 1   
    50   50   51 1   
    51   50   54 1   
    52   51   52 1   
    53   51   55 1   
    54   51   56 1   
    55   52   53 2   
    56   52   57 1   
    57   57   58 1   
    58   57   65 1   
    59   58   59 1   
    60   58   61 1   
    61   58   66 1   
    62   59   60 2   
    63   59   69 1   
    64   61   62 1   
    65   61   67 1   
    66   61   68 1   
    67   62   63 1   
    68   62   64 1   
    69   69   70 1   
    70   69   73 1   
    71   70   71 1   
    72   70   74 1   
    73   70   75 1   
    74   71   72 2   
    75   71   76 1   
    76   76   77 1   
    77   76   85 1   
    78   77   78 1   
    79   77   80 1   
    80   77   86 1   
    81   78   79 2   
    82   78   93 1   
    83   80   81 1   
    84   80   87 1   
    85   80   88 1   
    86   81   82 1   
    87   81   89 1   
    88   81   90 1   
    89   82   83 1   
    90   82   84 2   
    91   83   91 1   
    92   83   92 1   
    93   93   94 1   
    94   93  100 1   
    95   94   95 1   
    96   94   97 1   
    97   94  101 1   
    98   95   96 2   
    99   95  109 1   
   100   97   98 1   
   101   97   99 1   
   102   97  102 1   
   103   98  103 1   
   104   98  104 1   
   105   98  105 1   
   106   99  106 1   
   107   99  107 1   
   108   99  108 1   
   109  109  110 1   
   110  109  117 1   
   111  110  111 1   
   112  110  113 1   
   113  110  118 1   
   114  111  112 2   
   115  111  123 1   
   116  113  114 1   
   117  113  119 1   
   118  113  120 1   
   119  114  115 1   
   120  114  116 2   
   121  115  121 1   
   122  115  122 1   
   123  123  124 1   
   124  123  135 1   
   125  124  125 1   
   126  124  127 1   
   127  124  136 1   
   128  125  126 2   
   129  125  144 1   
   130  127  128 1   
   131  127  137 1   
   132  127  138 1   
   133  128  129 ar  
   134  128  130 ar  
   135  129  131 ar  
   136  129  139 1   
   137  130  132 ar  
   138  130  140 1   
   139  131  133 ar  
   140  131  141 1   
   141  132  133 ar  
   142  132  142 1   
   143  133  134 1   
   144  134  143 1   
   145  144  145 1   
   146  144  153 1   
   147  145  146 1   
   148  145  148 1   
   149  145  154 1   
   150  146  147 2   
   151  146  159 1   
   152  148  149 1   
   153  148  155 1   
   154  148  156 1   
   155  149  150 1   
   156  149  157 1   
   157  149  158 1   
   158  150  151 1   
   159  150  152 1   
   160  159  160 1   
   161  159  168 1   
   162  160  161 1   
   163  160  163 1   
   164  160  169 1   
   165  161  162 2   
   166  161  174 1   
   167  163  164 1   
   168  163  170 1   
   169  163  171 1   
   170  164  165 1   
   171  164  172 1   
   172  164  173 1   
   173  165  166 1   
   174  165  167 1   
   175  174  175 1   
   176  174  179 1   
   177  175  176 1   
   178  175  177 1   
   179  175  178 1   
   180  181  182 1   
   181  181  183 1   
   182  184  185 1   
   183  184  186 1   
@<TRIPOS>SUBSTRUCTURE
     1 MOL         1 TEMP              0 ****  ****    0 ROOT
