@<TRIPOS>MOLECULE
MOL
  179   176     1     0     0
SMALL
resp


@<TRIPOS>ATOM
      1 C1         -2.3640   -2.7930    5.4210 c3        1 MOL     -0.315922
      2 C2         -1.7000   -2.8360    4.0610 c         1 MOL      0.786526
      3 O1         -2.3720   -2.8740    3.0670 o         1 MOL     -0.634622
      4 H1         -2.9840   -3.6790    5.5500 hc        1 MOL      0.076911
      5 H2         -1.6000   -2.7690    6.1990 hc        1 MOL      0.076911
      6 H3         -2.9860   -1.9010    5.4950 hc        1 MOL      0.076911
      7 N1         -0.3760   -2.8100    4.0790 n         1 MOL     -0.627123
      8 C3          0.3800   -2.7060    2.7830 c3        1 MOL      0.034786
      9 C4          0.5170   -4.0550    2.0790 c         1 MOL      0.592159
     10 O2          1.2290   -4.9390    2.6050 o         1 MOL     -0.546139
     11 C5          1.7260   -1.9350    3.0170 c3        1 MOL     -0.271317
     12 C6          2.4960   -1.6320    1.7660 c         1 MOL      0.785087
     13 O3          3.6520   -1.1710    1.8910 o         1 MOL     -0.711299
     14 O4          1.9730   -1.7900    0.6590 o         1 MOL     -0.711299
     15 H4          0.0890   -2.6380    4.9580 hn        1 MOL      0.362991
     16 H5         -0.1990   -2.1270    2.0650 h1        1 MOL      0.020311
     17 H6          2.3340   -2.5300    3.6990 hc        1 MOL      0.088612
     18 H7          1.5780   -0.9890    3.5520 hc        1 MOL      0.088612
     19 N2         -0.0530   -4.1980    0.8470 n         1 MOL     -0.378793
     20 C7         -0.2140   -5.4460    0.0900 c3        1 MOL     -0.043601
     21 C8          1.0290   -5.8110   -0.6910 c         1 MOL      0.449918
     22 O5          1.3280   -7.0350   -0.8060 o         1 MOL     -0.552659
     23 C9         -1.4450   -5.2400   -0.8490 c3        1 MOL     -0.319165
     24 C10        -2.7050   -5.0220   -0.0430 c3        1 MOL      0.052123
     25 C11        -3.9770   -4.8240   -0.8360 c3        1 MOL     -0.334992
     26 C12        -4.5740   -6.1350   -1.4250 c3        1 MOL      0.156735
     27 N3         -5.9460   -6.0220   -1.9630 n4        1 MOL     -0.440965
     28 H8         -0.4770   -3.3210    0.5950 hn        1 MOL      0.318131
     29 H9         -0.3900   -6.3220    0.7020 h1        1 MOL      0.105536
     30 H10        -1.5370   -6.0620   -1.5480 hc        1 MOL      0.117928
     31 H11        -1.3630   -4.4040   -1.5450 hc        1 MOL      0.117928
     32 H12        -2.5430   -4.1480    0.5950 hc        1 MOL      0.080174
     33 H13        -2.8110   -5.8730    0.6400 hc        1 MOL      0.080174
     34 H14        -3.8110   -4.1830   -1.7040 hc        1 MOL      0.143914
     35 H15        -4.7190   -4.3480   -0.2040 hc        1 MOL      0.143914
     36 H16        -4.6010   -6.8620   -0.6120 hx        1 MOL      0.059354
     37 H17        -3.9940   -6.5380   -2.2470 hx        1 MOL      0.059354
     38 H18        -6.3580   -5.4470   -1.2460 hn        1 MOL      0.347948
     39 H19        -6.0090   -5.5630   -2.8650 hn        1 MOL      0.347948
     40 H20        -6.4260   -6.9080   -2.0100 hn        1 MOL      0.347948
     41 N4          1.6460   -4.7950   -1.2420 n         1 MOL     -0.238200
     42 C13         2.9380   -5.0290   -1.8660 c3        1 MOL     -0.077256
     43 C14         4.1730   -4.5850   -1.0740 c         1 MOL      0.416570
     44 O6          5.2710   -4.9270   -1.4950 o         1 MOL     -0.500964
     45 C15         2.8550   -4.4910   -3.2260 c3        1 MOL     -0.029834
     46 C16         2.7990   -2.9930   -3.2820 c         1 MOL      0.645638
     47 O7          2.4860   -2.2680   -2.2670 o         1 MOL     -0.694419
     48 O8          2.6620   -2.5930   -4.4890 o         1 MOL     -0.694419
     49 H21         1.2140   -3.8860   -1.2980 hn        1 MOL      0.233439
     50 H22         3.1460   -6.0880   -2.0040 h1        1 MOL      0.126781
     51 H23         1.9240   -4.8400   -3.6680 hc        1 MOL      0.030272
     52 H24         3.6210   -4.9290   -3.8700 hc        1 MOL      0.030272
     53 N5          3.9270   -4.1050    0.1550 n         1 MOL     -0.171338
     54 C17         5.0070   -3.7810    1.0790 c3        1 MOL     -0.076376
     55 C18         6.0120   -2.6920    0.6580 c         1 MOL      0.519952
     56 O9          7.2170   -2.9150    0.7030 o         1 MOL     -0.575596
     57 H25         2.9730   -4.0030    0.4580 hn        1 MOL      0.188954
     58 H26         5.6080   -4.6600    1.2970 h1        1 MOL      0.072276
     59 H27         4.5690   -3.5020    2.0420 h1        1 MOL      0.072276
     60 N6          5.6230   -1.5600    0.0370 n         1 MOL     -0.094297
     61 C19         6.4640   -0.5750   -0.5920 c3        1 MOL     -0.091045
     62 C20         6.6400    0.7990    0.1210 c         1 MOL      0.255127
     63 O10         7.1550    1.8050   -0.3990 o         1 MOL     -0.387397
     64 C21         6.0460   -0.4160   -2.1210 c3        1 MOL     -0.052693
     65 C22         4.6890    0.3040   -2.3860 c         1 MOL      0.560242
     66 N7          4.6110    0.8260   -3.5310 n         1 MOL     -0.703002
     67 O11         3.7500    0.3560   -1.6560 o         1 MOL     -0.489010
     68 H28         4.6600   -1.3130    0.1740 hn        1 MOL     -0.024259
     69 H29         7.4670   -1.0100   -0.6140 h1        1 MOL      0.149895
     70 H30         6.2620   -1.3390   -2.6650 hc        1 MOL      0.038743
     71 H31         6.7670    0.2720   -2.5650 hc        1 MOL      0.038743
     72 H32         5.4440    0.7570   -4.1080 hn        1 MOL      0.351170
     73 H33         3.7360    1.1890   -3.8900 hn        1 MOL      0.351170
     74 N8          6.2700    0.7560    1.4550 n         1 MOL     -0.230278
     75 C23         6.3560    1.8510    2.3810 c3        1 MOL     -0.148688
     76 C24         5.2260    2.8250    2.0640 c         1 MOL      0.468305
     77 O12         5.3230    3.9230    2.5920 o         1 MOL     -0.546027
     78 H34         5.9370   -0.1540    1.7530 hn        1 MOL      0.265152
     79 H35         7.3160    2.3680    2.3390 h1        1 MOL      0.112132
     80 H36         6.2580    1.5590    3.4200 h1        1 MOL      0.112132
     81 N9          4.2200    2.4650    1.2560 n         1 MOL     -0.155582
     82 C25         2.9770    3.2620    1.0340 c3        1 MOL      0.161495
     83 C26         1.7050    2.4680    1.2750 c         1 MOL      0.305682
     84 O13         1.6670    1.2750    0.9590 o         1 MOL     -0.560873
     85 C27         3.0080    3.7870   -0.4040 c3        1 MOL      0.092189
     86 C28         4.0330    4.8400   -0.5920 ca        1 MOL     -0.016998
     87 C29         5.3310    4.4910   -1.0520 ca        1 MOL     -0.260091
     88 C30         3.7560    6.2050   -0.2770 ca        1 MOL     -0.260091
     89 C31         6.3250    5.4670   -1.2160 ca        1 MOL     -0.066162
     90 C32         4.7650    7.1320   -0.4210 ca        1 MOL     -0.066162
     91 C33         5.9830    6.7960   -0.9520 ca        1 MOL      0.184332
     92 O14         6.9040    7.7790   -1.2310 oh        1 MOL     -0.454401
     93 H37         4.2770    1.5290    0.8750 hn        1 MOL      0.182899
     94 H38         2.9830    4.1710    1.6270 h1        1 MOL      0.021371
     95 H39         2.0080    4.1580   -0.6360 hc        1 MOL      0.014438
     96 H40         3.1810    2.9710   -1.1110 hc        1 MOL      0.014438
     97 H41         5.5810    3.4830   -1.3420 ha        1 MOL      0.129804
     98 H42         2.8390    6.5860    0.1490 ha        1 MOL      0.129804
     99 H43         7.2490    5.1950   -1.6970 ha        1 MOL      0.104463
    100 H44         4.6450    8.1530   -0.1150 ha        1 MOL      0.104463
    101 H45         6.5110    8.6170   -1.0070 ho        1 MOL      0.329166
    102 N10         0.6470    3.2170    1.6290 n         1 MOL     -0.500246
    103 C34        -0.7080    2.6470    1.7720 c3        1 MOL     -0.091843
    104 C35        -1.5740    3.5560    0.8280 c         1 MOL      0.504285
    105 O15        -1.5500    4.7880    0.9260 o         1 MOL     -0.553616
    106 C36        -1.1490    2.6850    3.2850 c3        1 MOL      0.162684
    107 C37        -0.5230    1.4980    3.9980 c3        1 MOL      0.085327
    108 C38        -2.7180    2.5260    3.4820 c3        1 MOL     -0.410757
    109 C39        -0.5700    1.6720    5.5090 c3        1 MOL     -0.231672
    110 H46         0.8460    4.1930    1.7910 hn        1 MOL      0.350665
    111 H47        -0.7510    1.6250    1.3770 h1        1 MOL      0.140091
    112 H48        -0.8250    3.6190    3.7420 hc        1 MOL      0.033255
    113 H49         0.5250    1.4770    3.6940 hc        1 MOL      0.034850
    114 H50        -0.9240    0.5220    3.7280 hc        1 MOL      0.034850
    115 H51        -2.8310    1.4630    3.2520 hc        1 MOL      0.102008
    116 H52        -3.0500    2.8550    4.4660 hc        1 MOL      0.102008
    117 H53        -3.3790    3.1680    2.9000 hc        1 MOL      0.102008
    118 H54        -1.5400    1.3890    5.9140 hc        1 MOL      0.048217
    119 H55         0.1700    1.0240    5.9660 hc        1 MOL      0.048217
    120 H56        -0.4140    2.7100    5.8250 hc        1 MOL      0.048217
    121 N11        -2.3050    2.9910   -0.1570 n         1 MOL     -0.240712
    122 C40        -3.2360    3.7350   -1.0130 c3        1 MOL     -0.084583
    123 C41        -4.6320    3.7360   -0.5450 c         1 MOL      0.547427
    124 O16        -4.9930    2.9620    0.3470 o         1 MOL     -0.486133
    125 C42        -3.0660    3.1840   -2.4620 c3        1 MOL     -0.257808
    126 O17        -3.6350    1.8860   -2.5070 oh        1 MOL     -0.474883
    127 H57        -2.1790    2.0010   -0.3100 hn        1 MOL      0.424055
    128 H58        -2.9240    4.7640   -1.1770 h1        1 MOL      0.085707
    129 H59        -1.9980    3.1110   -2.6600 h1        1 MOL      0.138384
    130 H60        -3.6780    3.8140   -3.1070 h1        1 MOL      0.138384
    131 H61        -3.6660    1.4860   -3.3840 ho        1 MOL      0.387977
    132 N12        -5.4920    4.4800   -1.1680 n         1 MOL     -0.407217
    133 C43        -6.8930    4.4540   -1.0850 c3        1 MOL      0.091189
    134 C44        -7.5360    3.0280   -1.2680 c         1 MOL      0.447441
    135 O18        -8.3240    2.5920   -0.4330 o         1 MOL     -0.464677
    136 C45        -7.5100    5.5010   -2.0540 c3        1 MOL     -0.308261
    137 H62        -5.0940    5.1320   -1.8280 hn        1 MOL      0.285082
    138 H63        -7.1630    4.8520   -0.1090 h1        1 MOL      0.095548
    139 H64        -7.2310    6.5210   -1.7790 hc        1 MOL      0.096926
    140 H65        -7.2190    5.3850   -3.0970 hc        1 MOL      0.096926
    141 H66        -8.5850    5.4730   -1.8720 hc        1 MOL      0.096926
    142 N13        -7.0060    2.2900   -2.3070 n         1 MOL     -0.438064
    143 C46        -7.4750    0.9140   -2.4530 c3        1 MOL      0.124928
    144 C47        -7.0470   -0.0470   -1.2810 c         1 MOL      0.285666
    145 O19        -7.7960   -0.9500   -0.9670 o         1 MOL     -0.525472
    146 C48        -7.0870    0.3780   -3.8840 c3        1 MOL     -0.302483
    147 H67        -6.3010    2.6140   -2.9420 hn        1 MOL      0.290461
    148 H68        -8.5610    0.9320   -2.5170 h1        1 MOL      0.107595
    149 H69        -6.0090    0.3630   -4.0310 hc        1 MOL      0.084252
    150 H70        -7.3840   -0.6630   -4.0410 hc        1 MOL      0.084252
    151 H71        -7.5530    0.9910   -4.6490 hc        1 MOL      0.084252
    152 N14        -5.9020    0.1630   -0.5940 n         1 MOL      0.119379
    153 C49        -5.4170   -0.8000    0.5030 c3        1 MOL     -0.112665
    154 C50        -6.0840   -0.4750    1.8300 c         1 MOL      0.522654
    155 O20        -6.2590   -1.3720    2.6410 o         1 MOL     -0.558107
    156 C51        -3.8530   -0.5890    0.6450 c3        1 MOL      0.234935
    157 C52        -3.1910   -1.2990   -0.4760 c3        1 MOL      0.088958
    158 C53        -1.7060   -0.9230   -0.6200 c         1 MOL      0.751985
    159 O21        -1.3420    0.2550   -0.5640 o         1 MOL     -0.818690
    160 O22        -0.8570   -1.8240   -0.8970 o         1 MOL     -0.818690
    161 H72        -5.2200    0.8380   -0.9290 hn        1 MOL      0.011164
    162 H73        -5.6350   -1.8300    0.2550 h1        1 MOL      0.033685
    163 H74        -3.5980   -1.0730    1.5910 hc        1 MOL     -0.067477
    164 H75        -3.6610    0.4770    0.6800 hc        1 MOL     -0.067477
    165 H76        -3.7740   -1.1230   -1.3850 hc        1 MOL     -0.095027
    166 H77        -3.1820   -2.3760   -0.3190 hc        1 MOL     -0.095027
    167 N15        -6.5380    0.7650    2.0850 n         1 MOL     -0.244315
    168 C54        -7.5560    1.2070    3.0670 c3        1 MOL     -0.178729
    169 H78        -8.1090    0.3410    3.4310 h1        1 MOL      0.097542
    170 H79        -7.0630    1.7010    3.9050 h1        1 MOL      0.097542
    171 H80        -8.2450    1.9030    2.5880 h1        1 MOL      0.097542
    172 H81        -6.2760    1.4120    1.3590 hn        1 MOL      0.176104
    173 Ca1         1.2630   -0.3130   -1.2530 Ca        1 MOL      1.754989
    174 O23         1.3520   -0.2940   -4.0340 oh        1 MOL     -0.884401
    175 H82         1.8990   -1.0450   -4.2810 ho        1 MOL      0.411906
    176 H83         0.8540   -0.0810   -4.8240 ho        1 MOL      0.411906
    177 O24         0.5540    2.1270   -2.0570 oh        1 MOL     -0.884401
    178 H84        -0.3260    2.2510   -1.6900 ho        1 MOL      0.411906
    179 H85         0.6300    2.8160   -2.7200 ho        1 MOL      0.411906
@<TRIPOS>BOND
     1    1    2 1   
     2    1    4 1   
     3    1    5 1   
     4    1    6 1   
     5    2    3 2   
     6    2    7 1   
     7    7    8 1   
     8    7   15 1   
     9    8    9 1   
    10    8   11 1   
    11    8   16 1   
    12    9   10 2   
    13    9   19 1   
    14   11   12 1   
    15   11   17 1   
    16   11   18 1   
    17   12   13 1   
    18   12   14 1   
    19   19   20 1   
    20   19   28 1   
    21   20   21 1   
    22   20   23 1   
    23   20   29 1   
    24   21   22 2   
    25   21   41 1   
    26   23   24 1   
    27   23   30 1   
    28   23   31 1   
    29   24   25 1   
    30   24   32 1   
    31   24   33 1   
    32   25   26 1   
    33   25   34 1   
    34   25   35 1   
    35   26   27 1   
    36   26   36 1   
    37   26   37 1   
    38   27   38 1   
    39   27   39 1   
    40   27   40 1   
    41   41   42 1   
    42   41   49 1   
    43   42   43 1   
    44   42   45 1   
    45   42   50 1   
    46   43   44 2   
    47   43   53 1   
    48   45   46 1   
    49   45   51 1   
    50   45   52 1   
    51   46   47 1   
    52   46   48 1   
    53   53   54 1   
    54   53   57 1   
    55   54   55 1   
    56   54   58 1   
    57   54   59 1   
    58   55   56 2   
    59   55   60 1   
    60   60   61 1   
    61   60   68 1   
    62   61   62 1   
    63   61   64 1   
    64   61   69 1   
    65   62   63 2   
    66   62   74 1   
    67   64   65 1   
    68   64   70 1   
    69   64   71 1   
    70   65   66 1   
    71   65   67 2   
    72   66   72 1   
    73   66   73 1   
    74   74   75 1   
    75   74   78 1   
    76   75   76 1   
    77   75   79 1   
    78   75   80 1   
    79   76   77 2   
    80   76   81 1   
    81   81   82 1   
    82   81   93 1   
    83   82   83 1   
    84   82   85 1   
    85   82   94 1   
    86   83   84 2   
    87   83  102 1   
    88   85   86 1   
    89   85   95 1   
    90   85   96 1   
    91   86   87 ar  
    92   86   88 ar  
    93   87   89 ar  
    94   87   97 1   
    95   88   90 ar  
    96   88   98 1   
    97   89   91 ar  
    98   89   99 1   
    99   90   91 ar  
   100   90  100 1   
   101   91   92 1   
   102   92  101 1   
   103  102  103 1   
   104  102  110 1   
   105  103  104 1   
   106  103  106 1   
   107  103  111 1   
   108  104  105 2   
   109  104  121 1   
   110  106  107 1   
   111  106  108 1   
   112  106  112 1   
   113  107  109 1   
   114  107  113 1   
   115  107  114 1   
   116  108  115 1   
   117  108  116 1   
   118  108  117 1   
   119  109  118 1   
   120  109  119 1   
   121  109  120 1   
   122  121  122 1   
   123  121  127 1   
   124  122  123 1   
   125  122  125 1   
   126  122  128 1   
   127  123  124 2   
   128  123  132 1   
   129  125  126 1   
   130  125  129 1   
   131  125  130 1   
   132  126  131 1   
   133  132  133 1   
   134  132  137 1   
   135  133  134 1   
   136  133  136 1   
   137  133  138 1   
   138  134  135 2   
   139  134  142 1   
   140  136  139 1   
   141  136  140 1   
   142  136  141 1   
   143  142  143 1   
   144  142  147 1   
   145  143  144 1   
   146  143  146 1   
   147  143  148 1   
   148  144  145 2   
   149  144  152 1   
   150  146  149 1   
   151  146  150 1   
   152  146  151 1   
   153  152  153 1   
   154  152  161 1   
   155  153  154 1   
   156  153  156 1   
   157  153  162 1   
   158  154  155 2   
   159  154  167 1   
   160  156  157 1   
   161  156  163 1   
   162  156  164 1   
   163  157  158 1   
   164  157  165 1   
   165  157  166 1   
   166  158  159 1   
   167  158  160 1   
   168  167  168 1   
   169  167  172 1   
   170  168  169 1   
   171  168  170 1   
   172  168  171 1   
   173  174  175 1   
   174  174  176 1   
   175  177  178 1   
   176  177  179 1   
@<TRIPOS>SUBSTRUCTURE
     1 MOL         1 TEMP              0 ****  ****    0 ROOT
