@<TRIPOS>MOLECULE
MOL
  175   173     1     0     0
SMALL
resp


@<TRIPOS>ATOM
      1 C1         -0.0470    3.7490    5.7940 c3        1 MOL     -0.377336
      2 C2         -0.3390    3.5210    4.2480 c         1 MOL      0.769111
      3 O1          0.2490    4.1730    3.3950 o         1 MOL     -0.572682
      4 H1          0.7880    4.4400    5.9070 hc        1 MOL      0.089445
      5 H2         -0.9320    4.1670    6.2740 hc        1 MOL      0.089445
      6 H3          0.2050    2.7960    6.2610 hc        1 MOL      0.089445
      7 N1         -1.4010    2.7580    3.9220 n         1 MOL     -0.704536
      8 C3         -1.8090    2.4780    2.5140 c3        1 MOL      0.291215
      9 C4         -2.1830    3.7700    1.8390 c         1 MOL      0.683276
     10 O2         -2.7500    4.6470    2.5020 o         1 MOL     -0.621483
     11 C5         -2.9580    1.4550    2.6460 c3        1 MOL     -0.206044
     12 C6         -3.4000    0.7070    1.3920 c         1 MOL      0.813177
     13 O3         -2.8620    0.8470    0.2870 o         1 MOL     -0.787773
     14 O4         -4.2450   -0.2150    1.4990 o         1 MOL     -0.787773
     15 H4         -1.9980    2.4340    4.6720 hn        1 MOL      0.313976
     16 H5         -0.9550    2.0290    2.0250 h1        1 MOL      0.025887
     17 H6         -3.8360    2.0040    2.9720 hc        1 MOL      0.041908
     18 H7         -2.6190    0.7060    3.3640 hc        1 MOL      0.041908
     19 N2         -1.7220    3.9310    0.6000 n         1 MOL     -0.394886
     20 C7         -1.9620    5.1130   -0.1810 c3        1 MOL      0.410439
     21 C8         -3.2310    5.1230   -1.0130 c         1 MOL      0.271253
     22 O5         -3.8370    6.1470   -1.1930 o         1 MOL     -0.548617
     23 C9         -0.7200    5.3030   -1.0640 c3        1 MOL     -0.377984
     24 H8         -1.4200    3.0910    0.1220 hn        1 MOL     -0.002752
     25 H9         -2.0310    5.9890    0.4720 h1        1 MOL      0.001051
     26 H10        -0.7790    6.2820   -1.5410 hc        1 MOL      0.092902
     27 H11         0.1580    5.3020   -0.4160 hc        1 MOL      0.092902
     28 H12        -0.6130    4.4720   -1.7660 hc        1 MOL      0.092902
     29 N3         -3.6800    3.9350   -1.4650 n         1 MOL     -0.029119
     30 C10        -4.9730    3.6830   -2.1610 c3        1 MOL      0.065085
     31 C11        -5.9990    2.9670   -1.3680 c         1 MOL      0.324542
     32 O6         -7.1050    2.7970   -1.8120 o         1 MOL     -0.488728
     33 C12        -4.8130    3.1120   -3.5770 c3        1 MOL     -0.166721
     34 C13        -4.4760    1.6240   -3.5030 c         1 MOL      0.711324
     35 O7         -3.3040    1.3070   -3.0570 o         1 MOL     -0.707904
     36 O8         -5.2190    0.7330   -3.9070 o         1 MOL     -0.707904
     37 H13        -3.1270    3.1050   -1.3910 hn        1 MOL      0.098563
     38 H14        -5.3640    4.6820   -2.3540 h1        1 MOL      0.078821
     39 H15        -4.0300    3.7230   -4.0400 hc        1 MOL      0.030921
     40 H16        -5.8050    3.2440   -4.0150 hc        1 MOL      0.030921
     41 N4         -5.6990    2.8070   -0.0940 n         1 MOL     -0.081820
     42 C14        -6.6870    2.2540    0.7810 c3        1 MOL     -0.117735
     43 C15        -7.2550    0.8150    0.4350 c         1 MOL      0.482012
     44 O9         -8.3630    0.4750    0.8470 o         1 MOL     -0.585829
     45 H17        -4.7610    3.0550    0.1970 hn        1 MOL      0.070191
     46 H18        -7.4580    3.0240    0.8280 h1        1 MOL      0.073530
     47 H19        -6.2940    2.0980    1.7880 h1        1 MOL      0.073530
     48 N5         -6.5330   -0.1020   -0.2740 n         1 MOL     -0.171493
     49 C16        -7.0710   -1.4320   -0.6990 c3        1 MOL     -0.221407
     50 C17        -6.9080   -2.5100    0.3900 c         1 MOL      0.545172
     51 O10        -7.3450   -3.6200    0.1000 o         1 MOL     -0.555631
     52 C18        -6.5650   -1.8020   -2.0730 c3        1 MOL     -0.075977
     53 C19        -5.0650   -2.2540   -2.1210 c         1 MOL      0.479448
     54 N6         -4.7170   -3.3370   -2.7740 n         1 MOL     -0.650525
     55 O11        -4.1920   -1.7320   -1.4320 o         1 MOL     -0.522060
     56 H20        -5.5640    0.0930   -0.4710 hn        1 MOL      0.206339
     57 H21        -8.1370   -1.2180   -0.7600 h1        1 MOL      0.163772
     58 H22        -6.6350   -0.9540   -2.7580 hc        1 MOL      0.075810
     59 H23        -7.2570   -2.5010   -2.5370 hc        1 MOL      0.075810
     60 H24        -5.4390   -3.7870   -3.3360 hn        1 MOL      0.327266
     61 H25        -3.7560   -3.6200   -2.6460 hn        1 MOL      0.327266
     62 N7         -6.2870   -2.1460    1.5620 n         1 MOL     -0.301928
     63 C20        -6.1200   -3.0160    2.7560 c3        1 MOL     -0.244238
     64 C21        -4.8510   -3.8080    2.6890 c         1 MOL      0.619012
     65 O12        -4.8240   -4.9000    3.2540 o         1 MOL     -0.585736
     66 H26        -5.7350   -1.3010    1.4930 hn        1 MOL      0.261603
     67 H27        -6.9890   -3.6660    2.7300 h1        1 MOL      0.131579
     68 H28        -6.1880   -2.4040    3.6510 h1        1 MOL      0.131579
     69 N8         -3.8300   -3.3590    1.9000 n         1 MOL     -0.487002
     70 C22        -2.6340   -4.0970    1.4340 c3        1 MOL     -0.045975
     71 C23        -1.4880   -3.0530    1.2340 c         1 MOL      0.542492
     72 O13        -1.6660   -2.0590    0.6200 o         1 MOL     -0.379996
     73 C24        -2.9350   -4.9630    0.1750 c3        1 MOL      0.321161
     74 C25        -1.7300   -5.7340   -0.3140 c3        1 MOL     -0.189799
     75 O14        -3.8640   -6.0130    0.4840 oh        1 MOL     -0.616332
     76 H29        -3.8950   -2.4330    1.5090 hn        1 MOL      0.324926
     77 H30        -2.2760   -4.8200    2.1690 h1        1 MOL      0.066377
     78 H31        -3.3510   -4.3380   -0.6170 h1        1 MOL      0.055139
     79 H32        -4.3100   -5.6450    1.2550 ho        1 MOL      0.380052
     80 H33        -1.9390   -6.4180   -1.1310 hc        1 MOL      0.044231
     81 H34        -1.0440   -4.9440   -0.6200 hc        1 MOL      0.044231
     82 H35        -1.2460   -6.3270    0.4770 hc        1 MOL      0.044231
     83 N9         -0.3090   -3.2260    1.9140 n         1 MOL     -0.521445
     84 C26         0.8290   -2.3460    1.7840 c3        1 MOL     -0.123404
     85 C27         1.7890   -2.8490    0.7010 c         1 MOL      0.579677
     86 O15         2.3060   -3.9250    0.7790 o         1 MOL     -0.603386
     87 C28         1.5530   -2.1650    3.1260 c3        1 MOL      0.422818
     88 C29         0.6870   -1.7750    4.2610 c3        1 MOL      0.118540
     89 C30         2.6640   -1.0810    3.0680 c3        1 MOL     -0.516146
     90 C31         1.2900   -2.1260    5.6600 c3        1 MOL     -0.196193
     91 H36        -0.3430   -4.0180    2.5300 hn        1 MOL      0.290068
     92 H37         0.5040   -1.3740    1.4160 h1        1 MOL      0.042170
     93 H38         2.0420   -3.0920    3.4090 hc        1 MOL     -0.074002
     94 H39        -0.2020   -2.4130    4.2460 hc        1 MOL     -0.030452
     95 H40         0.3610   -0.7340    4.2380 hc        1 MOL     -0.030452
     96 H41         2.2170   -0.1310    2.7720 hc        1 MOL      0.106118
     97 H42         3.0890   -0.9770    4.0640 hc        1 MOL      0.106118
     98 H43         3.3710   -1.4690    2.3330 hc        1 MOL      0.106118
     99 H44         1.2820   -3.2030    5.8190 hc        1 MOL      0.030989
    100 H45         2.3160   -1.7970    5.8630 hc        1 MOL      0.030989
    101 H46         0.6780   -1.5980    6.3810 hc        1 MOL      0.030989
    102 N10         2.0250   -1.9990   -0.3320 n         1 MOL     -0.086581
    103 C32         3.0090   -2.1540   -1.3890 c3        1 MOL      0.091868
    104 C33         4.3210   -1.5400   -0.8630 c         1 MOL      0.461922
    105 O16         4.2730   -0.6710    0.0840 o         1 MOL     -0.388554
    106 C34         2.7210   -1.3740   -2.6870 c3        1 MOL     -0.449586
    107 C35         1.3280   -1.7720   -3.1820 c         1 MOL      0.729612
    108 O17         0.3850   -1.0540   -2.8300 o         1 MOL     -0.698105
    109 O18         1.1540   -2.9060   -3.6630 o         1 MOL     -0.698105
    110 H47         1.4710   -1.1670   -0.5170 hn        1 MOL      0.032408
    111 H48         3.0740   -3.2370   -1.4950 h1        1 MOL      0.045260
    112 H49         3.5460   -1.6500   -3.3550 hc        1 MOL      0.128454
    113 H50         2.7950   -0.2880   -2.6790 hc        1 MOL      0.128454
    114 N11         5.4830   -1.9170   -1.4240 n         1 MOL     -0.733337
    115 C36         6.7330   -1.4480   -0.8210 c3        1 MOL      0.566742
    116 C37         6.9160    0.0610   -0.8670 c         1 MOL      0.010030
    117 O19         7.2790    0.6090    0.1540 o         1 MOL     -0.413210
    118 C38         8.0060   -2.1150   -1.4260 c3        1 MOL     -0.445852
    119 C39         9.3090   -1.7540   -0.7010 ca        1 MOL      0.401416
    120 C40         9.5500   -2.1420    0.6250 ca        1 MOL     -0.332534
    121 C41        10.4470   -1.3550   -1.4610 ca        1 MOL     -0.332534
    122 C42        10.7880   -2.0750    1.2140 ca        1 MOL      0.006229
    123 C43        11.7170   -1.3130   -0.8190 ca        1 MOL      0.006229
    124 C44        11.9390   -1.6740    0.5030 ca        1 MOL     -0.241348
    125 H51         5.5220   -2.6270   -2.1350 hn        1 MOL      0.365183
    126 H52         6.6610   -1.7480    0.2290 h1        1 MOL      0.034102
    127 H53         8.0880   -1.7390   -2.4510 hc        1 MOL      0.103297
    128 H54         7.8730   -3.1880   -1.5220 hc        1 MOL      0.103297
    129 H55         8.7710   -2.4640    1.2960 ha        1 MOL      0.149196
    130 H56        10.2730   -1.0260   -2.4820 ha        1 MOL      0.149196
    131 H57        10.8520   -2.2280    2.2850 ha        1 MOL      0.084326
    132 H58        12.5620   -0.9520   -1.3770 ha        1 MOL      0.084326
    133 H59        12.8760   -1.5730    1.0320 ha        1 MOL      0.139526
    134 N12         6.5720    0.7790   -1.9140 n         1 MOL      0.177812
    135 C45         6.4780    2.2900   -1.8270 c3        1 MOL     -0.032092
    136 C46         5.6550    2.7510   -0.6040 c         1 MOL      0.408259
    137 O20         6.2540    3.5810    0.1300 o         1 MOL     -0.515397
    138 C47         5.7230    2.7200   -3.0500 c3        1 MOL     -0.032304
    139 C48         6.3880    1.7360   -4.0170 c3        1 MOL     -0.039457
    140 C49         6.3240    0.4140   -3.2620 c3        1 MOL     -0.069141
    141 H60         7.4780    2.7190   -1.7540 h1        1 MOL      0.065394
    142 H61         4.6860    2.4170   -2.9630 hc        1 MOL      0.057640
    143 H62         5.8270    3.7460   -3.4090 hc        1 MOL      0.057640
    144 H63         5.8050    1.7560   -4.9420 hc        1 MOL      0.015040
    145 H64         7.4550    1.9460   -4.1600 hc        1 MOL      0.015040
    146 H65         5.2990    0.0670   -3.3390 h1        1 MOL      0.022761
    147 H66         7.0480   -0.3110   -3.6500 h1        1 MOL      0.022761
    148 N13         4.4420    2.2170   -0.3390 n         1 MOL     -0.417239
    149 C50         3.7090    2.6670    0.8670 c3        1 MOL     -0.095054
    150 C51         4.4900    2.4940    2.2120 c         1 MOL      0.439673
    151 O21         4.2590    3.1720    3.2080 o         1 MOL     -0.538862
    152 C52         2.3690    1.9440    0.8700 c3        1 MOL     -0.086401
    153 C53         1.4970    2.3570   -0.3570 c3        1 MOL      0.366140
    154 C54         0.3050    1.4670   -0.6490 c         1 MOL      0.594563
    155 O22         0.2600    0.2310   -0.2670 o         1 MOL     -0.686963
    156 O23        -0.5420    1.8610   -1.4390 o         1 MOL     -0.686963
    157 H67         4.2280    1.3390   -0.7840 hn        1 MOL      0.283253
    158 H68         3.5810    3.7370    0.7160 h1        1 MOL      0.131371
    159 H69         1.8820    2.2250    1.8160 hc        1 MOL      0.036319
    160 H70         2.5400    0.8670    0.8600 hc        1 MOL      0.036319
    161 H71         2.1410    2.4130   -1.2360 hc        1 MOL     -0.084193
    162 H72         1.1640    3.3840   -0.2080 hc        1 MOL     -0.084193
    163 N14         5.4460    1.4880    2.2290 n         1 MOL      0.061405
    164 C55         6.3280    1.1050    3.3480 c3        1 MOL     -0.248526
    165 H73         6.9750    1.9430    3.6040 h1        1 MOL      0.083387
    166 H74         5.7220    0.8360    4.2130 h1        1 MOL      0.083387
    167 H75         6.9390    0.2520    3.0540 h1        1 MOL      0.083387
    168 H76         5.6160    0.9350    1.3970 hn        1 MOL      0.015046
    169 Ca1        -1.8770   -0.4150   -1.6890 Ca        1 MOL      1.776590
    170 O24        -2.5120   -1.0250   -4.5250 oh        1 MOL     -0.874133
    171 H77        -2.3910   -1.5760   -5.2900 ho        1 MOL      0.414993
    172 H78        -3.2990   -0.5170   -4.7100 ho        1 MOL      0.414993
    173 O25        -1.7650   -3.1180   -2.5830 oh        1 MOL     -0.874133
    174 H79        -1.8960   -3.4690   -3.4690 ho        1 MOL      0.414993
    175 H80        -0.8770   -3.3640   -2.3570 ho        1 MOL      0.414993
@<TRIPOS>BOND
     1    1    2 1   
     2    1    4 1   
     3    1    5 1   
     4    1    6 1   
     5    2    3 2   
     6    2    7 1   
     7    7    8 1   
     8    7   15 1   
     9    8    9 1   
    10    8   11 1   
    11    8   16 1   
    12    9   10 2   
    13    9   19 1   
    14   11   12 1   
    15   11   17 1   
    16   11   18 1   
    17   12   13 1   
    18   12   14 1   
    19   19   20 1   
    20   19   24 1   
    21   20   21 1   
    22   20   23 1   
    23   20   25 1   
    24   21   22 2   
    25   21   29 1   
    26   23   26 1   
    27   23   27 1   
    28   23   28 1   
    29   29   30 1   
    30   29   37 1   
    31   30   31 1   
    32   30   33 1   
    33   30   38 1   
    34   31   32 2   
    35   31   41 1   
    36   33   34 1   
    37   33   39 1   
    38   33   40 1   
    39   34   35 1   
    40   34   36 1   
    41   41   42 1   
    42   41   45 1   
    43   42   43 1   
    44   42   46 1   
    45   42   47 1   
    46   43   44 2   
    47   43   48 1   
    48   48   49 1   
    49   48   56 1   
    50   49   50 1   
    51   49   52 1   
    52   49   57 1   
    53   50   51 2   
    54   50   62 1   
    55   52   53 1   
    56   52   58 1   
    57   52   59 1   
    58   53   54 1   
    59   53   55 2   
    60   54   60 1   
    61   54   61 1   
    62   62   63 1   
    63   62   66 1   
    64   63   64 1   
    65   63   67 1   
    66   63   68 1   
    67   64   65 2   
    68   64   69 1   
    69   69   70 1   
    70   69   76 1   
    71   70   71 1   
    72   70   73 1   
    73   70   77 1   
    74   71   72 2   
    75   71   83 1   
    76   73   74 1   
    77   73   75 1   
    78   73   78 1   
    79   74   80 1   
    80   74   81 1   
    81   74   82 1   
    82   75   79 1   
    83   83   84 1   
    84   83   91 1   
    85   84   85 1   
    86   84   87 1   
    87   84   92 1   
    88   85   86 2   
    89   85  102 1   
    90   87   88 1   
    91   87   89 1   
    92   87   93 1   
    93   88   90 1   
    94   88   94 1   
    95   88   95 1   
    96   89   96 1   
    97   89   97 1   
    98   89   98 1   
    99   90   99 1   
   100   90  100 1   
   101   90  101 1   
   102  102  103 1   
   103  102  110 1   
   104  103  104 1   
   105  103  106 1   
   106  103  111 1   
   107  104  105 2   
   108  104  114 1   
   109  106  107 1   
   110  106  112 1   
   111  106  113 1   
   112  107  108 1   
   113  107  109 1   
   114  114  115 1   
   115  114  125 1   
   116  115  116 1   
   117  115  118 1   
   118  115  126 1   
   119  116  117 2   
   120  116  134 1   
   121  118  119 1   
   122  118  127 1   
   123  118  128 1   
   124  119  120 ar  
   125  119  121 ar  
   126  120  122 ar  
   127  120  129 1   
   128  121  123 ar  
   129  121  130 1   
   130  122  124 ar  
   131  122  131 1   
   132  123  124 ar  
   133  123  132 1   
   134  124  133 1   
   135  134  135 1   
   136  134  140 1   
   137  135  136 1   
   138  135  138 1   
   139  135  141 1   
   140  136  137 2   
   141  136  148 1   
   142  138  139 1   
   143  138  142 1   
   144  138  143 1   
   145  139  140 1   
   146  139  144 1   
   147  139  145 1   
   148  140  146 1   
   149  140  147 1   
   150  148  149 1   
   151  148  157 1   
   152  149  150 1   
   153  149  152 1   
   154  149  158 1   
   155  150  151 2   
   156  150  163 1   
   157  152  153 1   
   158  152  159 1   
   159  152  160 1   
   160  153  154 1   
   161  153  161 1   
   162  153  162 1   
   163  154  155 1   
   164  154  156 1   
   165  163  164 1   
   166  163  168 1   
   167  164  165 1   
   168  164  166 1   
   169  164  167 1   
   170  170  171 1   
   171  170  172 1   
   172  173  174 1   
   173  173  175 1   
@<TRIPOS>SUBSTRUCTURE
     1 MOL         1 TEMP              0 ****  ****    0 ROOT
