@<TRIPOS>MOLECULE
MOL
  189   185     1     0     0
SMALL
resp


@<TRIPOS>ATOM
      1 C1         -0.0010    2.4030    5.7670 c3        1 MOL     -0.328466
      2 C2         -0.5350    2.3580    4.3210 c         1 MOL      0.856418
      3 O1          0.1650    2.7350    3.4070 o         1 MOL     -0.668813
      4 H1         -0.2990    3.3410    6.2350 hc        1 MOL      0.076851
      5 H2         -0.4140    1.5680    6.3340 hc        1 MOL      0.076851
      6 H3          1.0860    2.3310    5.7560 hc        1 MOL      0.076851
      7 N1         -1.7220    1.8630    4.1460 n         1 MOL     -0.754019
      8 C3         -2.2700    1.6410    2.7500 c3        1 MOL      0.330210
      9 C4         -2.5450    2.9860    2.0090 c         1 MOL      0.468559
     10 O2         -3.3430    3.7500    2.5530 o         1 MOL     -0.606563
     11 C5         -3.5140    0.6640    2.6380 c3        1 MOL     -0.162567
     12 C6         -4.0680    0.3930    1.2480 c         1 MOL      0.738094
     13 O3         -5.2900    0.1110    1.1440 o         1 MOL     -0.670798
     14 O4         -3.3610    0.6200    0.2480 o         1 MOL     -0.670798
     15 H4         -2.3550    1.7690    4.9280 hn        1 MOL      0.358329
     16 H5         -1.5270    1.1570    2.1090 h1        1 MOL     -0.083258
     17 H6         -4.3240    1.0830    3.2320 hc        1 MOL      0.022996
     18 H7         -3.2050   -0.3010    3.0540 hc        1 MOL      0.022996
     19 N2         -2.0060    3.2090    0.8560 n         1 MOL     -0.192062
     20 C7         -2.1680    4.5450    0.2480 c3        1 MOL     -0.004403
     21 C8         -3.2100    4.6760   -0.8090 c         1 MOL      0.485754
     22 O5         -3.5610    5.8050   -1.0850 o         1 MOL     -0.608750
     23 C9         -0.7750    5.0830   -0.2590 c3        1 MOL      0.137857
     24 C10         0.0310    5.9140    0.8230 c3        1 MOL      0.054295
     25 C11        -0.5410    7.3320    1.0000 c3        1 MOL     -0.246412
     26 C12         0.3460    7.9600    2.0970 c3        1 MOL      0.221494
     27 N3         -0.2270    9.0580    2.8590 n4        1 MOL     -0.324218
     28 H8         -1.5490    2.4550    0.3650 hn        1 MOL      0.179107
     29 H9         -2.4140    5.3220    0.9750 h1        1 MOL      0.051228
     30 H10        -0.8770    5.6440   -1.1910 hc        1 MOL     -0.010285
     31 H11        -0.1480    4.2570   -0.6140 hc        1 MOL     -0.010285
     32 H12         1.0140    6.0420    0.3630 hc        1 MOL      0.005845
     33 H13         0.0750    5.3160    1.7370 hc        1 MOL      0.005845
     34 H14        -1.5620    7.2660    1.3640 hc        1 MOL      0.080914
     35 H15        -0.4660    7.8880    0.0640 hc        1 MOL      0.080914
     36 H16         1.2290    8.3820    1.6370 hx        1 MOL      0.033087
     37 H17         0.6990    7.2590    2.8540 hx        1 MOL      0.033087
     38 H18        -0.6100    9.7720    2.2650 hn        1 MOL      0.307690
     39 H19        -1.0820    8.9020    3.3830 hn        1 MOL      0.307690
     40 H20         0.5890    9.3980    3.3440 hn        1 MOL      0.307690
     41 N4         -3.6080    3.5790   -1.3760 n         1 MOL     -0.284197
     42 C13        -4.4630    3.5030   -2.6290 c3        1 MOL     -0.080980
     43 C14        -5.6570    2.5200   -2.4870 c         1 MOL      0.404436
     44 O6         -6.1890    1.9440   -3.4340 o         1 MOL     -0.464162
     45 C15        -3.6390    3.3540   -3.8930 c3        1 MOL     -0.190967
     46 C16        -2.5550    2.2190   -3.7520 c         1 MOL      0.782093
     47 O7         -1.5330    2.2930   -4.4640 o         1 MOL     -0.729947
     48 O8         -2.7450    1.3670   -2.9010 o         1 MOL     -0.729947
     49 H21        -3.2540    2.6830   -1.0550 hn        1 MOL      0.237148
     50 H22        -4.8600    4.5000   -2.7840 h1        1 MOL      0.111942
     51 H23        -3.1910    4.3250   -4.0800 hc        1 MOL      0.064797
     52 H24        -4.2670    3.1970   -4.7690 hc        1 MOL      0.064797
     53 N5         -6.0690    2.3270   -1.2420 n         1 MOL     -0.187431
     54 C17        -7.2940    1.7750   -0.7800 c3        1 MOL     -0.165355
     55 C18        -7.6450    0.3900   -1.4150 c         1 MOL      0.415316
     56 O9         -8.7460    0.1820   -1.9170 o         1 MOL     -0.561877
     57 H25        -5.5990    2.7990   -0.4790 hn        1 MOL      0.202582
     58 H26        -8.0020    2.5420   -1.0820 h1        1 MOL      0.096924
     59 H27        -7.3180    1.6650    0.3130 h1        1 MOL      0.096924
     60 N6         -6.6560   -0.4710   -1.4860 n         1 MOL     -0.017362
     61 C19        -6.7550   -1.8530   -1.9270 c3        1 MOL     -0.078526
     62 C20        -6.8670   -2.8320   -0.7740 c         1 MOL      0.424917
     63 O10        -7.1090   -4.0160   -1.0070 o         1 MOL     -0.530540
     64 C21        -5.6870   -2.3130   -2.9660 c3        1 MOL     -0.068359
     65 C22        -4.2060   -2.0680   -2.6340 c         1 MOL      0.585127
     66 O11        -3.7580   -2.3200   -1.4320 o         1 MOL     -0.604903
     67 O12        -3.4340   -1.7380   -3.5490 o         1 MOL     -0.604903
     68 H28        -5.8160   -0.2190   -0.9820 hn        1 MOL      0.032730
     69 H29        -7.7200   -2.0420   -2.4070 h1        1 MOL      0.119446
     70 H30        -5.8780   -1.7740   -3.8980 hc        1 MOL      0.036942
     71 H31        -5.8590   -3.3570   -3.2110 hc        1 MOL      0.036942
     72 N7         -6.6740   -2.3690    0.4580 n         1 MOL     -0.302945
     73 C23        -6.7160   -3.1700    1.6990 c3        1 MOL     -0.062538
     74 C24        -5.4500   -4.0720    1.8880 c         1 MOL      0.392549
     75 O13        -5.3970   -5.0480    2.6190 o         1 MOL     -0.528802
     76 H32        -6.4350   -1.4060    0.6520 hn        1 MOL      0.246503
     77 H33        -7.5920   -3.8290    1.7580 h1        1 MOL      0.088971
     78 H34        -6.9400   -2.4880    2.5220 h1        1 MOL      0.088971
     79 N8         -4.3350   -3.7420    1.1590 n         1 MOL     -0.067597
     80 C25        -2.9570   -4.3180    1.0860 c3        1 MOL     -0.216132
     81 C26        -1.8290   -3.3300    0.9550 c         1 MOL      0.552462
     82 O14        -1.9640   -2.1340    0.5920 o         1 MOL     -0.635566
     83 C27        -2.7850   -5.2670   -0.1350 c3        1 MOL      0.428810
     84 C28        -3.8810   -6.3010   -0.1610 c3        1 MOL     -0.275604
     85 O15        -2.8380   -4.7640   -1.4310 oh        1 MOL     -0.655981
     86 H35        -4.4090   -2.8600    0.6760 hn        1 MOL      0.121835
     87 H36        -2.7730   -4.8660    2.0020 h1        1 MOL      0.114499
     88 H37        -1.8460   -5.8080    0.0410 h1        1 MOL     -0.023829
     89 H38        -3.3060   -3.9330   -1.3990 ho        1 MOL      0.424866
     90 H39        -4.7740   -5.7600   -0.4890 hc        1 MOL      0.066924
     91 H40        -3.6260   -7.0810   -0.8760 hc        1 MOL      0.066924
     92 H41        -3.9970   -6.7680    0.8130 hc        1 MOL      0.066924
     93 N9         -0.6090   -3.7100    1.4410 n         1 MOL     -0.554111
     94 C29         0.4890   -2.8580    1.8550 c3        1 MOL      0.056122
     95 C30         1.8140   -3.5090    1.2960 c         1 MOL      0.458561
     96 O16         2.2300   -4.6110    1.6160 o         1 MOL     -0.547367
     97 C31         0.3760   -2.6120    3.3360 c3        1 MOL      0.122532
     98 C32        -0.8500   -1.8530    3.7930 c3        1 MOL      0.015210
     99 C33         1.6160   -2.0170    3.9710 c3        1 MOL     -0.146275
    100 C34        -1.2150   -2.2280    5.2130 c3        1 MOL     -0.196059
    101 H42        -0.5880   -4.6380    1.8480 hn        1 MOL      0.279819
    102 H43         0.3880   -1.9060    1.3410 h1        1 MOL      0.129279
    103 H44         0.5080   -3.5970    3.7840 hc        1 MOL      0.010269
    104 H45        -1.7060   -2.0530    3.1410 hc        1 MOL      0.049747
    105 H46        -0.7140   -0.7720    3.8460 hc        1 MOL      0.049747
    106 H47         2.5520   -2.3560    3.5370 hc        1 MOL      0.022295
    107 H48         1.5590   -0.9780    3.6210 hc        1 MOL      0.022295
    108 H49         1.6780   -2.1730    5.0450 hc        1 MOL      0.022295
    109 H50        -2.0920   -1.7120    5.5920 hc        1 MOL      0.039550
    110 H51        -1.3670   -3.3080    5.2150 hc        1 MOL      0.039550
    111 H52        -0.4000   -1.9910    5.8950 hc        1 MOL      0.039550
    112 N10         2.5070   -2.7290    0.4770 n         1 MOL     -0.085674
    113 C35         3.7230   -3.1380   -0.2330 c3        1 MOL      0.071552
    114 C36         4.9760   -2.7100    0.5690 c         1 MOL      0.395630
    115 O17         4.9370   -1.9930    1.6300 o         1 MOL     -0.418932
    116 C37         3.7720   -2.4090   -1.6680 c3        1 MOL      0.114950
    117 C38         2.5120   -2.4330   -2.6460 c3        1 MOL     -0.483715
    118 O18         4.0030   -1.0290   -1.4980 oh        1 MOL     -0.266090
    119 H53         1.9810   -1.9140    0.2090 hn        1 MOL      0.064553
    120 H54         3.7320   -4.2230   -0.3040 h1        1 MOL      0.069164
    121 H55         4.6550   -2.8570   -2.1260 h1        1 MOL     -0.020143
    122 H56         3.9870   -0.7930   -2.4290 ho        1 MOL      0.317486
    123 H57         2.6050   -1.7150   -3.4650 hc        1 MOL      0.140739
    124 H58         2.3050   -3.4740   -2.8670 hc        1 MOL      0.140739
    125 H59         1.6600   -1.9680   -2.1240 hc        1 MOL      0.140739
    126 N11         6.2190   -3.0500    0.0890 n         1 MOL     -0.360162
    127 C39         7.4970   -2.4960    0.4770 c3        1 MOL     -0.047548
    128 C40         7.5950   -0.9320    0.3190 c         1 MOL      0.301971
    129 O19         8.1830   -0.3630    1.2360 o         1 MOL     -0.471128
    130 C41         8.7430   -2.9820   -0.3470 c3        1 MOL      0.245438
    131 C42         9.2250   -4.3310    0.0460 c3        1 MOL     -0.394205
    132 O20         8.3240   -2.9270   -1.6630 oh        1 MOL     -0.628586
    133 H60         6.2930   -3.7020   -0.6680 hn        1 MOL      0.275589
    134 H61         7.7100   -2.8360    1.4910 h1        1 MOL      0.133034
    135 H62         9.5970   -2.3210   -0.1890 h1        1 MOL      0.061584
    136 H63         9.0110   -3.2400   -2.2490 ho        1 MOL      0.405530
    137 H64        10.1520   -4.5070   -0.5060 hc        1 MOL      0.116806
    138 H65         9.5370   -4.3800    1.0940 hc        1 MOL      0.116806
    139 H66         8.5100   -5.1000   -0.2370 hc        1 MOL      0.116806
    140 N12         6.9380   -0.3820   -0.6960 n         1 MOL     -0.250247
    141 C43         6.8500    1.0700   -0.8620 c3        1 MOL     -0.045657
    142 C44         5.9030    1.7220    0.1140 c         1 MOL      0.406886
    143 O21         6.1860    2.8660    0.5870 o         1 MOL     -0.535683
    144 C45         6.5220    1.4010   -2.2930 c3        1 MOL      0.090322
    145 C46         7.7960    1.4050   -3.1850 c3        1 MOL      0.070220
    146 C47         7.5420    2.1020   -4.5430 c3        1 MOL     -0.097524
    147 C48         8.8890    2.3310   -5.1680 c3        1 MOL     -0.064918
    148 N13         9.4700    1.1720   -5.8830 n4        1 MOL     -0.403622
    149 H67         6.6940   -0.9900   -1.4670 hn        1 MOL      0.263321
    150 H68         7.7840    1.5730   -0.6050 h1        1 MOL      0.088097
    151 H69         6.0020    2.3530   -2.3110 hc        1 MOL     -0.011441
    152 H70         5.7550    0.6950   -2.5920 hc        1 MOL     -0.011441
    153 H71         8.0030    0.3450   -3.3350 hc        1 MOL     -0.015087
    154 H72         8.5630    1.9960   -2.6940 hc        1 MOL     -0.015087
    155 H73         7.0190    3.0410   -4.3440 hc        1 MOL      0.069952
    156 H74         6.9600    1.5290   -5.2630 hc        1 MOL      0.069952
    157 H75         9.5580    2.7250   -4.4110 hx        1 MOL      0.134251
    158 H76         8.8000    3.1270   -5.9120 hx        1 MOL      0.134251
    159 H77        10.3480    1.4380   -6.3100 hn        1 MOL      0.319934
    160 H78         9.6120    0.3470   -5.3140 hn        1 MOL      0.319934
    161 H79         8.8530    0.8700   -6.6280 hn        1 MOL      0.319934
    162 N14         4.7970    1.0220    0.4340 n         1 MOL      0.061417
    163 C49         3.8710    1.5490    1.4880 c3        1 MOL     -0.353242
    164 C50         4.4000    1.2020    2.8860 c         1 MOL      0.693238
    165 O22         3.8530    1.8230    3.7980 o         1 MOL     -0.588169
    166 C51         2.4680    0.9370    1.3930 c3        1 MOL      0.234883
    167 C52         1.8600    1.5620    0.1670 c3        1 MOL      0.130689
    168 C53         0.6090    0.8300   -0.2230 c         1 MOL      0.512165
    169 O23         0.6230   -0.4340   -0.4220 o         1 MOL     -0.646825
    170 O24        -0.4590    1.4000   -0.5500 o         1 MOL     -0.646825
    171 H80         4.5300    0.1040    0.0890 hn        1 MOL     -0.175795
    172 H81         3.7600    2.6310    1.3790 h1        1 MOL      0.131315
    173 H82         1.8920    1.1780    2.2840 hc        1 MOL     -0.015242
    174 H83         2.4840   -0.1430    1.2930 hc        1 MOL     -0.015242
    175 H84         2.5120    1.5850   -0.7020 hc        1 MOL     -0.043922
    176 H85         1.5230    2.5800    0.3190 hc        1 MOL     -0.043922
    177 N15         5.4290    0.3590    3.0840 n         1 MOL     -0.329644
    178 C54         6.2990    0.4470    4.2250 c3        1 MOL     -0.375557
    179 H86         5.7830    0.9610    5.0370 h1        1 MOL      0.141202
    180 H87         6.5770   -0.5560    4.5500 h1        1 MOL      0.141202
    181 H88         7.1970    1.0030    3.9570 h1        1 MOL      0.141202
    182 H89         5.6720   -0.2630    2.3280 hn        1 MOL      0.318196
    183 Ca1        -1.7750   -0.5690   -1.4550 Ca        1 MOL      1.749525
    184 O25        -0.5670   -0.2660   -3.6890 oh        1 MOL     -0.847066
    185 H90         0.1000   -0.4870   -4.3460 ho        1 MOL      0.396847
    186 H91        -0.9680    0.5300   -4.0180 ho        1 MOL      0.396847
    187 O26        -1.0880   -3.0080   -2.5930 oh        1 MOL     -0.847066
    188 H92        -0.9800   -3.1980   -3.5280 ho        1 MOL      0.396847
    189 H93        -1.5230   -3.7890   -2.2420 ho        1 MOL      0.396847
@<TRIPOS>BOND
     1    1    2 1   
     2    1    4 1   
     3    1    5 1   
     4    1    6 1   
     5    2    3 2   
     6    2    7 1   
     7    7    8 1   
     8    7   15 1   
     9    8    9 1   
    10    8   11 1   
    11    8   16 1   
    12    9   10 2   
    13    9   19 1   
    14   11   12 1   
    15   11   17 1   
    16   11   18 1   
    17   12   13 1   
    18   12   14 1   
    19   19   20 1   
    20   19   28 1   
    21   20   21 1   
    22   20   23 1   
    23   20   29 1   
    24   21   22 2   
    25   21   41 1   
    26   23   24 1   
    27   23   30 1   
    28   23   31 1   
    29   24   25 1   
    30   24   32 1   
    31   24   33 1   
    32   25   26 1   
    33   25   34 1   
    34   25   35 1   
    35   26   27 1   
    36   26   36 1   
    37   26   37 1   
    38   27   38 1   
    39   27   39 1   
    40   27   40 1   
    41   41   42 1   
    42   41   49 1   
    43   42   43 1   
    44   42   45 1   
    45   42   50 1   
    46   43   44 2   
    47   43   53 1   
    48   45   46 1   
    49   45   51 1   
    50   45   52 1   
    51   46   47 1   
    52   46   48 1   
    53   53   54 1   
    54   53   57 1   
    55   54   55 1   
    56   54   58 1   
    57   54   59 1   
    58   55   56 2   
    59   55   60 1   
    60   60   61 1   
    61   60   68 1   
    62   61   62 1   
    63   61   64 1   
    64   61   69 1   
    65   62   63 2   
    66   62   72 1   
    67   64   65 1   
    68   64   70 1   
    69   64   71 1   
    70   65   66 1   
    71   65   67 1   
    72   72   73 1   
    73   72   76 1   
    74   73   74 1   
    75   73   77 1   
    76   73   78 1   
    77   74   75 2   
    78   74   79 1   
    79   79   80 1   
    80   79   86 1   
    81   80   81 1   
    82   80   83 1   
    83   80   87 1   
    84   81   82 2   
    85   81   93 1   
    86   83   84 1   
    87   83   85 1   
    88   83   88 1   
    89   84   90 1   
    90   84   91 1   
    91   84   92 1   
    92   85   89 1   
    93   93   94 1   
    94   93  101 1   
    95   94   95 1   
    96   94   97 1   
    97   94  102 1   
    98   95   96 2   
    99   95  112 1   
   100   97   98 1   
   101   97   99 1   
   102   97  103 1   
   103   98  100 1   
   104   98  104 1   
   105   98  105 1   
   106   99  106 1   
   107   99  107 1   
   108   99  108 1   
   109  100  109 1   
   110  100  110 1   
   111  100  111 1   
   112  112  113 1   
   113  112  119 1   
   114  113  114 1   
   115  113  116 1   
   116  113  120 1   
   117  114  115 2   
   118  114  126 1   
   119  116  117 1   
   120  116  118 1   
   121  116  121 1   
   122  117  123 1   
   123  117  124 1   
   124  117  125 1   
   125  118  122 1   
   126  126  127 1   
   127  126  133 1   
   128  127  128 1   
   129  127  130 1   
   130  127  134 1   
   131  128  129 2   
   132  128  140 1   
   133  130  131 1   
   134  130  132 1   
   135  130  135 1   
   136  131  137 1   
   137  131  138 1   
   138  131  139 1   
   139  132  136 1   
   140  140  141 1   
   141  140  149 1   
   142  141  142 1   
   143  141  144 1   
   144  141  150 1   
   145  142  143 2   
   146  142  162 1   
   147  144  145 1   
   148  144  151 1   
   149  144  152 1   
   150  145  146 1   
   151  145  153 1   
   152  145  154 1   
   153  146  147 1   
   154  146  155 1   
   155  146  156 1   
   156  147  148 1   
   157  147  157 1   
   158  147  158 1   
   159  148  159 1   
   160  148  160 1   
   161  148  161 1   
   162  162  163 1   
   163  162  171 1   
   164  163  164 1   
   165  163  166 1   
   166  163  172 1   
   167  164  165 2   
   168  164  177 1   
   169  166  167 1   
   170  166  173 1   
   171  166  174 1   
   172  167  168 1   
   173  167  175 1   
   174  167  176 1   
   175  168  169 1   
   176  168  170 1   
   177  177  178 1   
   178  177  182 1   
   179  178  179 1   
   180  178  180 1   
   181  178  181 1   
   182  184  185 1   
   183  184  186 1   
   184  187  188 1   
   185  187  189 1   
@<TRIPOS>SUBSTRUCTURE
     1 MOL         1 TEMP              0 ****  ****    0 ROOT
