@<TRIPOS>MOLECULE
MOL
  175   173     1     0     0
SMALL
resp


@<TRIPOS>ATOM
      1 C1          0.1750    4.4730    5.4040 c3        1 MOL     -0.400915
      2 C2         -0.3230    4.3640    3.9620 c         1 MOL      0.720802
      3 O1          0.5020    4.4490    3.0460 o         1 MOL     -0.556716
      4 H1         -0.5860    4.9570    6.0150 hc        1 MOL      0.094384
      5 H2          0.3750    3.4760    5.7950 hc        1 MOL      0.094384
      6 H3          1.0920    5.0640    5.4290 hc        1 MOL      0.094384
      7 N1         -1.6280    4.2550    3.7650 n         1 MOL     -0.612113
      8 C3         -2.1900    3.8380    2.5370 c3        1 MOL      0.251344
      9 C4         -2.3720    4.9810    1.5630 c         1 MOL      0.539960
     10 O2         -2.6540    6.1390    1.9900 o         1 MOL     -0.567746
     11 C5         -3.5660    3.1210    2.8550 c3        1 MOL     -0.393645
     12 C6         -4.1090    2.3230    1.7080 c         1 MOL      0.791513
     13 O3         -5.3240    2.0520    1.7910 o         1 MOL     -0.692498
     14 O4         -3.4250    1.8710    0.7910 o         1 MOL     -0.692498
     15 H4         -2.2230    4.3060    4.5800 hn        1 MOL      0.319572
     16 H5         -1.6560    3.0650    1.9910 h1        1 MOL      0.022688
     17 H6         -4.3810    3.7900    3.1380 hc        1 MOL      0.088337
     18 H7         -3.3330    2.3350    3.5750 hc        1 MOL      0.088337
     19 N2         -2.2910    4.7190    0.2100 n         1 MOL     -0.526155
     20 C7         -2.5400    5.6470   -0.8750 c3        1 MOL      0.279267
     21 C8         -3.4470    5.1350   -1.9820 c         1 MOL      0.640883
     22 O5         -3.5050    5.7800   -3.0060 o         1 MOL     -0.578272
     23 C9         -1.1020    6.0910   -1.3270 c3        1 MOL     -0.212991
     24 H8         -1.7330    3.8940    0.0280 hn        1 MOL      0.254623
     25 H9         -3.0260    6.5520   -0.5040 h1        1 MOL      0.006470
     26 H10        -0.3640    6.3650   -0.5840 hc        1 MOL      0.048547
     27 H11        -0.6550    5.2850   -1.9110 hc        1 MOL      0.048547
     28 H12        -1.2800    6.9040   -2.0370 hc        1 MOL      0.048547
     29 N3         -4.1740    4.0190   -1.7190 n         1 MOL     -0.724362
     30 C10        -4.9510    3.3210   -2.7590 c3        1 MOL      0.259074
     31 C11        -6.1100    2.4110   -2.2590 c         1 MOL      0.399026
     32 O6         -7.0300    2.1090   -3.0180 o         1 MOL     -0.578901
     33 C12        -4.0180    2.5220   -3.6730 c3        1 MOL     -0.283261
     34 C13        -3.2770    1.4640   -2.7340 c         1 MOL      0.723014
     35 O7         -3.9440    0.6720   -2.0400 o         1 MOL     -0.713778
     36 O8         -2.0140    1.4660   -2.6540 o         1 MOL     -0.713778
     37 H13        -3.8400    3.5400   -0.9060 hn        1 MOL      0.362964
     38 H14        -5.4950    4.0280   -3.3770 h1        1 MOL      0.056768
     39 H15        -3.2210    3.0840   -4.1530 hc        1 MOL      0.071843
     40 H16        -4.5510    2.0350   -4.5000 hc        1 MOL      0.071843
     41 N4         -6.1560    2.0330   -0.9970 n         1 MOL     -0.198107
     42 C14        -7.2740    1.2340   -0.4870 c3        1 MOL     -0.153882
     43 C15        -7.2700   -0.2630   -0.7140 c         1 MOL      0.556519
     44 O9         -8.2290   -0.8360   -0.2940 o         1 MOL     -0.618051
     45 H17        -5.4740    2.2890   -0.3030 hn        1 MOL      0.160306
     46 H18        -8.2660    1.6070   -0.7050 h1        1 MOL      0.093327
     47 H19        -7.2690    1.2050    0.6040 h1        1 MOL      0.093327
     48 N5         -6.2880   -0.8020   -1.4550 n         1 MOL     -0.347870
     49 C16        -6.2050   -2.2360   -1.9340 c3        1 MOL     -0.013460
     50 C17        -6.2120   -3.3780   -0.8720 c         1 MOL      0.459740
     51 O10        -6.2090   -4.5590   -1.2490 o         1 MOL     -0.534274
     52 C18        -5.0830   -2.2420   -2.9950 c3        1 MOL     -0.311201
     53 C19        -3.6330   -2.1940   -2.5400 c         1 MOL      0.562665
     54 N6         -2.7060   -2.1970   -3.3860 n         1 MOL     -0.641930
     55 O11        -3.3410   -2.0780   -1.3540 o         1 MOL     -0.333157
     56 H20        -5.5870   -0.1690   -1.8270 hn        1 MOL      0.309063
     57 H21        -7.1970   -2.3680   -2.3580 h1        1 MOL      0.102062
     58 H22        -5.2310   -1.4300   -3.6990 hc        1 MOL      0.088183
     59 H23        -5.2240   -3.2090   -3.4880 hc        1 MOL      0.088183
     60 H24        -2.8980   -2.1800   -4.3820 hn        1 MOL      0.331332
     61 H25        -1.7900   -2.0890   -2.9750 hn        1 MOL      0.331332
     62 N7         -6.2940   -2.9910    0.4010 n         1 MOL     -0.193982
     63 C20        -6.3270   -3.9320    1.5390 c3        1 MOL     -0.247052
     64 C21        -4.9530   -4.5960    1.9110 c         1 MOL      0.585972
     65 O12        -4.9610   -5.4630    2.7140 o         1 MOL     -0.554164
     66 H26        -6.0780   -2.0290    0.6520 hn        1 MOL      0.238066
     67 H27        -7.1110   -4.6810    1.4310 h1        1 MOL      0.107881
     68 H28        -6.5330   -3.3640    2.4440 h1        1 MOL      0.107881
     69 N8         -3.8550   -4.1230    1.2350 n         1 MOL     -0.296941
     70 C22        -2.4870   -4.6720    1.3750 c3        1 MOL     -0.162166
     71 C23        -1.4160   -3.5420    1.3920 c         1 MOL      0.728738
     72 O13        -1.5990   -2.4190    0.8380 o         1 MOL     -0.677271
     73 C24        -2.1840   -5.6160    0.1740 c3        1 MOL      0.448576
     74 C25        -3.2010   -6.7840    0.2630 c3        1 MOL     -0.554107
     75 O14        -2.3590   -4.9620   -1.1170 oh        1 MOL     -0.569469
     76 H29        -3.9840   -3.2380    0.7600 hn        1 MOL      0.171822
     77 H30        -2.4320   -5.2420    2.3020 h1        1 MOL      0.086265
     78 H31        -1.1610   -5.9590    0.2590 h1        1 MOL     -0.030389
     79 H32        -2.0930   -4.0440   -1.0280 ho        1 MOL      0.308476
     80 H33        -3.1560   -7.3260   -0.6700 hc        1 MOL      0.147890
     81 H34        -3.0880   -7.4480    1.1220 hc        1 MOL      0.147890
     82 H35        -4.2260   -6.4250    0.2040 hc        1 MOL      0.147890
     83 N9         -0.2670   -3.7710    2.0290 n         1 MOL     -0.649234
     84 C26         0.8370   -2.8460    1.9490 c3        1 MOL      0.176301
     85 C27         1.6480   -3.0800    0.6990 c         1 MOL      0.633043
     86 O15         2.1270   -4.1950    0.4760 o         1 MOL     -0.609442
     87 C28         1.6100   -2.9450    3.2490 c3        1 MOL     -0.028886
     88 C29         0.9220   -2.0920    4.4460 c3        1 MOL      0.079930
     89 C30         3.1280   -2.6410    3.0600 c3        1 MOL     -0.158228
     90 C31         1.5520   -2.2400    5.8380 c3        1 MOL     -0.128913
     91 H36        -0.0610   -4.7320    2.2850 hn        1 MOL      0.309943
     92 H37         0.4640   -1.8180    1.9020 h1        1 MOL     -0.094916
     93 H38         1.5730   -3.9570    3.6390 hc        1 MOL      0.027543
     94 H39        -0.1410   -2.2800    4.4910 hc        1 MOL      0.007417
     95 H40         0.9480   -1.0200    4.2530 hc        1 MOL      0.007417
     96 H41         3.6240   -3.3050    2.3580 hc        1 MOL      0.036950
     97 H42         3.0510   -1.6760    2.5560 hc        1 MOL      0.036950
     98 H43         3.5930   -2.4480    4.0290 hc        1 MOL      0.036950
     99 H44         2.3790   -1.5890    6.1070 hc        1 MOL      0.023887
    100 H45         0.7250   -1.9630    6.4900 hc        1 MOL      0.023887
    101 H46         1.8320   -3.2750    6.0560 hc        1 MOL      0.023887
    102 N10         1.8100   -2.0240   -0.0780 n         1 MOL     -0.359987
    103 C32         2.6890   -1.8810   -1.2640 c3        1 MOL      0.163470
    104 C33         4.0720   -1.4900   -0.9430 c         1 MOL      0.324399
    105 O16         4.3680   -1.1190    0.1710 o         1 MOL     -0.245695
    106 C34         1.9980   -0.9380   -2.3330 c3        1 MOL     -0.248385
    107 C35         0.5920   -1.3020   -2.7140 c         1 MOL      0.739553
    108 O17        -0.3720   -1.1520   -1.9490 o         1 MOL     -0.691694
    109 O18         0.4140   -1.9430   -3.7460 o         1 MOL     -0.691694
    110 H47         1.3470   -1.1720    0.2290 hn        1 MOL      0.251932
    111 H48         2.6870   -2.8430   -1.7570 h1        1 MOL      0.066769
    112 H49         2.6340   -0.7050   -3.1920 hc        1 MOL      0.052897
    113 H50         1.9010    0.1050   -2.0180 hc        1 MOL      0.052897
    114 N11         5.0470   -1.6840   -1.8800 n         1 MOL     -0.692806
    115 C36         6.4620   -1.4390   -1.4900 c3        1 MOL      0.649619
    116 C37         6.8060   -0.0050   -1.0680 c         1 MOL      0.173446
    117 O19         7.5700    0.0860   -0.0970 o         1 MOL     -0.442991
    118 C38         7.4340   -1.9420   -2.5950 c3        1 MOL     -0.273843
    119 C39         8.8740   -1.8910   -2.2160 ca        1 MOL      0.203084
    120 C40         9.8680   -1.1550   -2.9740 ca        1 MOL     -0.280033
    121 C41         9.2150   -2.3720   -0.9550 ca        1 MOL     -0.280033
    122 C42        11.1000   -0.8720   -2.4100 ca        1 MOL     -0.014272
    123 C43        10.5350   -2.1420   -0.4510 ca        1 MOL     -0.014272
    124 C44        11.4460   -1.3590   -1.1600 ca        1 MOL     -0.216163
    125 H51         4.8300   -2.1110   -2.7700 hn        1 MOL      0.322084
    126 H52         6.5730   -2.1390   -0.6640 h1        1 MOL     -0.009281
    127 H53         7.2200   -1.3670   -3.5020 hc        1 MOL      0.050967
    128 H54         7.2690   -3.0190   -2.6890 hc        1 MOL      0.050967
    129 H55         9.6010   -0.7780   -3.9520 ha        1 MOL      0.142029
    130 H56         8.6350   -3.0390   -0.3420 ha        1 MOL      0.142029
    131 H57        11.7790   -0.1870   -2.8990 ha        1 MOL      0.091761
    132 H58        10.7640   -2.6090    0.4810 ha        1 MOL      0.091761
    133 H59        12.3360   -1.1330   -0.5900 ha        1 MOL      0.123759
    134 N12         6.2980    1.0690   -1.7180 n         1 MOL      0.013749
    135 C45         6.5820    2.3710   -1.1880 c3        1 MOL      0.003877
    136 C46         5.9180    2.7420    0.1670 c         1 MOL      0.223597
    137 O20         6.4000    3.6350    0.8920 o         1 MOL     -0.473310
    138 C47         6.1030    3.2520   -2.3270 c3        1 MOL      0.027068
    139 C48         5.8090    2.4770   -3.5730 c3        1 MOL     -0.261215
    140 C49         5.5610    1.1400   -2.9320 c3        1 MOL      0.002341
    141 H60         7.6610    2.3670   -1.0320 h1        1 MOL      0.077084
    142 H61         5.2040    3.7830   -1.9980 hc        1 MOL      0.029768
    143 H62         6.9110    3.9730   -2.4900 hc        1 MOL      0.029768
    144 H63         4.9030    2.9020   -3.9820 hc        1 MOL      0.096306
    145 H64         6.6430    2.4190   -4.2750 hc        1 MOL      0.096306
    146 H65         4.5510    1.0440   -2.5390 h1        1 MOL      0.045162
    147 H66         5.7220    0.2990   -3.6100 h1        1 MOL      0.045162
    148 N13         4.7980    2.0550    0.5070 n         1 MOL     -0.035756
    149 C50         4.0360    2.1090    1.7670 c3        1 MOL     -0.150138
    150 C51         4.7700    1.3130    2.8800 c         1 MOL      0.515305
    151 O21         4.8810    1.7020    4.0130 o         1 MOL     -0.547318
    152 C52         2.6500    1.4840    1.5680 c3        1 MOL     -0.023386
    153 C53         1.7930    2.1300    0.5010 c3        1 MOL     -0.092322
    154 C54         0.3600    1.6110    0.4300 c         1 MOL      0.479537
    155 O22         0.2330    0.4430    0.7970 o         1 MOL     -0.574933
    156 O23        -0.6090    2.1650   -0.0700 o         1 MOL     -0.574933
    157 H67         4.4300    1.3960   -0.1660 hn        1 MOL      0.102335
    158 H68         3.8590    3.1380    2.0720 h1        1 MOL      0.115768
    159 H69         2.1390    1.5300    2.5380 hc        1 MOL      0.037012
    160 H70         2.7560    0.4120    1.3950 hc        1 MOL      0.037012
    161 H71         2.2030    2.0130   -0.5020 hc        1 MOL      0.063411
    162 H72         1.7970    3.2120    0.6580 hc        1 MOL      0.063411
    163 N14         5.4520    0.2080    2.4050 n         1 MOL     -0.031649
    164 C55         6.4010   -0.5290    3.2510 c3        1 MOL     -0.222933
    165 H73         6.9310   -1.2650    2.6460 h1        1 MOL      0.081096
    166 H74         7.1170    0.1680    3.6860 h1        1 MOL      0.081096
    167 H75         5.8580   -1.0380    4.0480 h1        1 MOL      0.081096
    168 H76         5.1120   -0.1470    1.5310 hn        1 MOL     -0.050618
    169 Ca1        -2.0540    0.0050   -0.3300 Ca        1 MOL      1.576901
    170 O24        -4.3540   -0.6570    0.8520 oh        1 MOL     -0.671777
    171 H77        -4.5780    0.2700    0.7630 ho        1 MOL      0.343933
    172 H78        -4.3190   -0.7940    1.7990 ho        1 MOL      0.343933
    173 O25        -1.7460   -0.2400    2.6170 oh        1 MOL     -0.671777
    174 H79        -0.8300   -0.1110    2.3630 ho        1 MOL      0.343933
    175 H80        -1.8410    0.2700    3.4230 ho        1 MOL      0.343933
@<TRIPOS>BOND
     1    1    2 1   
     2    1    4 1   
     3    1    5 1   
     4    1    6 1   
     5    2    3 2   
     6    2    7 1   
     7    7    8 1   
     8    7   15 1   
     9    8    9 1   
    10    8   11 1   
    11    8   16 1   
    12    9   10 2   
    13    9   19 1   
    14   11   12 1   
    15   11   17 1   
    16   11   18 1   
    17   12   13 1   
    18   12   14 1   
    19   19   20 1   
    20   19   24 1   
    21   20   21 1   
    22   20   23 1   
    23   20   25 1   
    24   21   22 2   
    25   21   29 1   
    26   23   26 1   
    27   23   27 1   
    28   23   28 1   
    29   29   30 1   
    30   29   37 1   
    31   30   31 1   
    32   30   33 1   
    33   30   38 1   
    34   31   32 2   
    35   31   41 1   
    36   33   34 1   
    37   33   39 1   
    38   33   40 1   
    39   34   35 1   
    40   34   36 1   
    41   41   42 1   
    42   41   45 1   
    43   42   43 1   
    44   42   46 1   
    45   42   47 1   
    46   43   44 2   
    47   43   48 1   
    48   48   49 1   
    49   48   56 1   
    50   49   50 1   
    51   49   52 1   
    52   49   57 1   
    53   50   51 2   
    54   50   62 1   
    55   52   53 1   
    56   52   58 1   
    57   52   59 1   
    58   53   54 1   
    59   53   55 2   
    60   54   60 1   
    61   54   61 1   
    62   62   63 1   
    63   62   66 1   
    64   63   64 1   
    65   63   67 1   
    66   63   68 1   
    67   64   65 2   
    68   64   69 1   
    69   69   70 1   
    70   69   76 1   
    71   70   71 1   
    72   70   73 1   
    73   70   77 1   
    74   71   72 2   
    75   71   83 1   
    76   73   74 1   
    77   73   75 1   
    78   73   78 1   
    79   74   80 1   
    80   74   81 1   
    81   74   82 1   
    82   75   79 1   
    83   83   84 1   
    84   83   91 1   
    85   84   85 1   
    86   84   87 1   
    87   84   92 1   
    88   85   86 2   
    89   85  102 1   
    90   87   88 1   
    91   87   89 1   
    92   87   93 1   
    93   88   90 1   
    94   88   94 1   
    95   88   95 1   
    96   89   96 1   
    97   89   97 1   
    98   89   98 1   
    99   90   99 1   
   100   90  100 1   
   101   90  101 1   
   102  102  103 1   
   103  102  110 1   
   104  103  104 1   
   105  103  106 1   
   106  103  111 1   
   107  104  105 2   
   108  104  114 1   
   109  106  107 1   
   110  106  112 1   
   111  106  113 1   
   112  107  108 1   
   113  107  109 1   
   114  114  115 1   
   115  114  125 1   
   116  115  116 1   
   117  115  118 1   
   118  115  126 1   
   119  116  117 2   
   120  116  134 1   
   121  118  119 1   
   122  118  127 1   
   123  118  128 1   
   124  119  120 ar  
   125  119  121 ar  
   126  120  122 ar  
   127  120  129 1   
   128  121  123 ar  
   129  121  130 1   
   130  122  124 ar  
   131  122  131 1   
   132  123  124 ar  
   133  123  132 1   
   134  124  133 1   
   135  134  135 1   
   136  134  140 1   
   137  135  136 1   
   138  135  138 1   
   139  135  141 1   
   140  136  137 2   
   141  136  148 1   
   142  138  139 1   
   143  138  142 1   
   144  138  143 1   
   145  139  140 1   
   146  139  144 1   
   147  139  145 1   
   148  140  146 1   
   149  140  147 1   
   150  148  149 1   
   151  148  157 1   
   152  149  150 1   
   153  149  152 1   
   154  149  158 1   
   155  150  151 2   
   156  150  163 1   
   157  152  153 1   
   158  152  159 1   
   159  152  160 1   
   160  153  154 1   
   161  153  161 1   
   162  153  162 1   
   163  154  155 1   
   164  154  156 1   
   165  163  164 1   
   166  163  168 1   
   167  164  165 1   
   168  164  166 1   
   169  164  167 1   
   170  170  171 1   
   171  170  172 1   
   172  173  174 1   
   173  173  175 1   
@<TRIPOS>SUBSTRUCTURE
     1 MOL         1 TEMP              0 ****  ****    0 ROOT
