@<TRIPOS>MOLECULE
MOL
  189   185     1     0     0
SMALL
resp


@<TRIPOS>ATOM
      1 C1          0.4310    1.0630    5.8940 c3        1 MOL     -0.281639
      2 C2         -0.1290    1.3160    4.4420 c         1 MOL      0.648152
      3 O1          0.5980    1.7060    3.4890 o         1 MOL     -0.616466
      4 H1         -0.2870    1.4310    6.6280 hc        1 MOL      0.080608
      5 H2          0.5880   -0.0050    6.0430 hc        1 MOL      0.080608
      6 H3          1.3760    1.5900    6.0160 hc        1 MOL      0.080608
      7 N1         -1.4440    1.0610    4.3090 n         1 MOL     -0.581338
      8 C3         -2.2190    1.2340    3.0860 c3        1 MOL      0.414289
      9 C4         -2.4430    2.6990    2.6350 c         1 MOL      0.300556
     10 O2         -3.3890    3.3450    3.0360 o         1 MOL     -0.498588
     11 C5         -3.5190    0.5320    3.1450 c3        1 MOL     -0.404280
     12 C6         -4.2050    0.2700    1.7810 c         1 MOL      0.921033
     13 O3         -3.5610    0.5530    0.7220 o         1 MOL     -0.721800
     14 O4         -5.3180   -0.2930    1.7220 o         1 MOL     -0.721800
     15 H4         -1.9160    0.8070    5.1690 hn        1 MOL      0.314455
     16 H5         -1.6760    0.7000    2.3140 h1        1 MOL     -0.042277
     17 H6         -4.2200    1.1260    3.7250 hc        1 MOL      0.070924
     18 H7         -3.3710   -0.5030    3.4600 hc        1 MOL      0.070924
     19 N2         -1.5920    3.1590    1.7520 n         1 MOL     -0.080580
     20 C7         -1.4460    4.6090    1.5830 c3        1 MOL     -0.341223
     21 C8         -2.2870    5.1450    0.4710 c         1 MOL      0.639779
     22 O5         -2.5590    6.3630    0.3790 o         1 MOL     -0.600137
     23 C9          0.0830    4.8530    1.3570 c3        1 MOL      0.080799
     24 C10         0.3970    6.3510    1.4990 c3        1 MOL     -0.042303
     25 C11         1.7860    6.7190    2.1050 c3        1 MOL      0.073310
     26 C12         2.8520    5.8120    1.5310 c3        1 MOL     -0.012533
     27 N3          4.1710    6.1160    2.1690 n4        1 MOL     -0.262354
     28 H8         -0.8550    2.5580    1.4130 hn        1 MOL      0.254128
     29 H9         -1.7660    5.1700    2.4620 h1        1 MOL      0.176256
     30 H10         0.5110    4.4750    0.4300 hc        1 MOL      0.016990
     31 H11         0.6870    4.3150    2.0800 hc        1 MOL      0.016990
     32 H12        -0.2740    6.8080    2.2300 hc        1 MOL      0.028133
     33 H13         0.4330    6.7770    0.4920 hc        1 MOL      0.028133
     34 H14         1.8560    6.6040    3.1900 hc        1 MOL      0.003100
     35 H15         1.9030    7.7770    1.8750 hc        1 MOL      0.003100
     36 H16         2.9710    5.9650    0.4590 hx        1 MOL      0.079880
     37 H17         2.5220    4.7880    1.7290 hx        1 MOL      0.079880
     38 H18         4.5270    6.9630    1.7480 hn        1 MOL      0.295139
     39 H19         4.0450    6.4290    3.1150 hn        1 MOL      0.295139
     40 H20         4.7920    5.3160    2.1360 hn        1 MOL      0.295139
     41 N4         -2.7840    4.1670   -0.3280 n         1 MOL     -0.298793
     42 C13        -3.8010    4.4710   -1.3320 c3        1 MOL     -0.020402
     43 C14        -5.1280    3.7270   -1.0800 c         1 MOL      0.400924
     44 O6         -6.1000    3.9200   -1.7830 o         1 MOL     -0.535600
     45 C15        -3.3350    4.2190   -2.7420 c3        1 MOL     -0.360123
     46 C16        -2.6110    2.8980   -2.9300 c         1 MOL      0.771897
     47 O7         -2.9700    1.8910   -2.2910 o         1 MOL     -0.696142
     48 O8         -1.8150    2.7610   -3.8700 o         1 MOL     -0.696142
     49 H21        -2.4560    3.2180   -0.2100 hn        1 MOL      0.112578
     50 H22        -4.0410    5.5330   -1.2840 h1        1 MOL      0.144082
     51 H23        -2.7150    5.0770   -3.0070 hc        1 MOL      0.106286
     52 H24        -4.1240    4.2810   -3.4830 hc        1 MOL      0.106286
     53 N5         -5.1470    2.9170   -0.0350 n         1 MOL     -0.126481
     54 C17        -6.4130    2.2650    0.4620 c3        1 MOL     -0.229807
     55 C18        -7.1140    1.3290   -0.4830 c         1 MOL      0.622801
     56 O9         -8.3150    1.2020   -0.3750 o         1 MOL     -0.569188
     57 H25        -4.2750    2.5940    0.3460 hn        1 MOL      0.061309
     58 H26        -7.0350    3.1460    0.5780 h1        1 MOL      0.118909
     59 H27        -6.2860    1.8960    1.4740 h1        1 MOL      0.118909
     60 N6         -6.3100    0.7230   -1.3700 n         1 MOL     -0.448183
     61 C19        -6.7930   -0.3880   -2.2500 c3        1 MOL      0.122812
     62 C20        -7.1390   -1.6490   -1.5130 c         1 MOL      0.420434
     63 O10        -7.9660   -2.4520   -2.0520 o         1 MOL     -0.557374
     64 C21        -5.7320   -0.7070   -3.3040 c3        1 MOL     -0.404522
     65 C22        -4.3240   -0.9690   -2.7840 c         1 MOL      0.932797
     66 O11        -4.1700   -1.4600   -1.7070 o         1 MOL     -0.759241
     67 O12        -3.3620   -0.7810   -3.5730 o         1 MOL     -0.759241
     68 H28        -5.3380    0.9880   -1.4830 hn        1 MOL      0.355325
     69 H29        -7.7310   -0.1580   -2.7420 h1        1 MOL      0.073246
     70 H30        -5.6450    0.2270   -3.8600 hc        1 MOL      0.107070
     71 H31        -5.9740   -1.5670   -3.9340 hc        1 MOL      0.107070
     72 N7         -6.6090   -1.7850   -0.2480 n         1 MOL     -0.128824
     73 C23        -6.8520   -2.9960    0.5030 c3        1 MOL     -0.046918
     74 C24        -5.7350   -4.0340    0.6080 c         1 MOL      0.521122
     75 O13        -5.9770   -5.1480    1.0450 o         1 MOL     -0.594538
     76 H32        -5.9120   -1.1010   -0.0330 hn        1 MOL      0.169828
     77 H33        -7.6890   -3.5950    0.1360 h1        1 MOL      0.060606
     78 H34        -7.2490   -2.7050    1.4740 h1        1 MOL      0.060606
     79 N8         -4.5610   -3.6540    0.1860 n         1 MOL     -0.236124
     80 C25        -3.3480   -4.4700    0.2620 c3        1 MOL      0.015948
     81 C26        -2.1600   -3.5300    0.5430 c         1 MOL      0.497152
     82 O14        -2.2520   -2.3190    0.4420 o         1 MOL     -0.610347
     83 C27        -3.0970   -5.2520   -1.0670 c3        1 MOL      0.425961
     84 C28        -3.9970   -6.4100   -1.1070 c3        1 MOL     -0.578376
     85 O15        -3.3210   -4.5520   -2.2560 oh        1 MOL     -0.555184
     86 H35        -4.4670   -2.7390   -0.2180 hn        1 MOL      0.252043
     87 H36        -3.3580   -5.1900    1.0750 h1        1 MOL      0.052902
     88 H37        -2.0690   -5.6090   -0.9720 h1        1 MOL     -0.045257
     89 H38        -3.0280   -5.1550   -2.9420 ho        1 MOL      0.364031
     90 H39        -4.1680   -6.8110   -0.1110 hc        1 MOL      0.148176
     91 H40        -4.9360   -6.1330   -1.5800 hc        1 MOL      0.148176
     92 H41        -3.4500   -7.2050   -1.6170 hc        1 MOL      0.148176
     93 N9         -1.0340   -4.0940    0.9590 n         1 MOL     -0.489488
     94 C29         0.1650   -3.3750    1.3790 c3        1 MOL     -0.000672
     95 C30         1.3130   -3.9300    0.5110 c         1 MOL      0.385636
     96 O16         1.5940   -5.1250    0.5160 o         1 MOL     -0.532521
     97 C31         0.4470   -3.5000    2.9040 c3        1 MOL      0.309992
     98 C32        -0.6870   -3.0540    3.8240 c3        1 MOL      0.129979
     99 C33         1.7440   -2.7300    3.1980 c3        1 MOL     -0.793016
    100 C34        -0.6660   -3.6680    5.2260 c3        1 MOL     -0.177478
    101 H42        -1.1570   -5.0480    1.2660 hn        1 MOL      0.282683
    102 H43         0.0410   -2.3390    1.0590 h1        1 MOL      0.045885
    103 H44         0.4920   -4.5760    3.0870 hc        1 MOL     -0.016295
    104 H45        -1.6660   -3.2200    3.3710 hc        1 MOL     -0.001441
    105 H46        -0.6290   -1.9720    3.9580 hc        1 MOL     -0.001441
    106 H47         2.0870   -2.8890    4.2300 hc        1 MOL      0.167198
    107 H48         2.5830   -3.2010    2.6820 hc        1 MOL      0.167198
    108 H49         1.6630   -1.6610    3.0200 hc        1 MOL      0.167198
    109 H50        -1.4200   -3.2390    5.8850 hc        1 MOL      0.034508
    110 H51        -0.9070   -4.7130    5.0430 hc        1 MOL      0.034508
    111 H52         0.2830   -3.5750    5.7680 hc        1 MOL      0.034508
    112 N10         2.0720   -2.9580   -0.0210 n         1 MOL     -0.043690
    113 C35         3.1790   -3.2080   -0.9800 c3        1 MOL     -0.161536
    114 C36         4.4840   -3.2000   -0.3000 c         1 MOL      0.322638
    115 O17         4.6880   -2.7750    0.7940 o         1 MOL     -0.355432
    116 C37         3.1720   -2.1660   -2.1760 c3        1 MOL      0.346397
    117 C38         2.0770   -2.2680   -3.2100 c3        1 MOL     -0.573702
    118 O18         3.1440   -0.8200   -1.7230 oh        1 MOL     -0.580732
    119 H53         1.8320   -1.9800    0.0960 hn        1 MOL      0.400688
    120 H54         3.0460   -4.1450   -1.5100 h1        1 MOL      0.082599
    121 H55         4.0820   -2.2130   -2.7880 h1        1 MOL      0.039134
    122 H56         2.2820   -0.7990   -1.3010 ho        1 MOL      0.335754
    123 H57         2.5870   -2.5870   -4.1240 hc        1 MOL      0.146265
    124 H58         1.3330   -3.0150   -2.9230 hc        1 MOL      0.146265
    125 H59         1.6320   -1.2840   -3.3530 hc        1 MOL      0.146265
    126 N11         5.5450   -3.4590   -1.1080 n         1 MOL     -0.216817
    127 C39         6.9230   -3.0820   -0.6740 c3        1 MOL     -0.285541
    128 C40         7.1700   -1.5840   -0.6540 c         1 MOL      0.635977
    129 O19         7.9390   -1.1590    0.2180 o         1 MOL     -0.550585
    130 C41         8.0440   -3.8230   -1.5270 c3        1 MOL      0.382656
    131 C42         8.0900   -5.3450   -1.3210 c3        1 MOL     -0.295818
    132 O20         7.9970   -3.4840   -2.8530 oh        1 MOL     -0.637160
    133 H60         5.3950   -3.7970   -2.0420 hn        1 MOL      0.204057
    134 H61         7.0370   -3.4590    0.3380 h1        1 MOL      0.160566
    135 H62         8.9600   -3.3710   -1.1480 h1        1 MOL     -0.001607
    136 H63         8.4610   -4.2230   -3.2540 ho        1 MOL      0.409999
    137 H64         8.3740   -5.4240   -0.2750 hc        1 MOL      0.075796
    138 H65         7.0480   -5.6640   -1.2940 hc        1 MOL      0.075796
    139 H66         8.6920   -5.9240   -2.0180 hc        1 MOL      0.075796
    140 N12         6.5520   -0.7950   -1.5240 n         1 MOL     -0.432960
    141 C43         6.5500    0.7100   -1.3420 c3        1 MOL      0.009038
    142 C44         5.9670    1.2440   -0.0340 c         1 MOL      0.289556
    143 O21         6.4020    2.2230    0.5810 o         1 MOL     -0.525398
    144 C45         5.8520    1.2760   -2.5380 c3        1 MOL     -0.171147
    145 C46         6.0740    2.8290   -2.6140 c3        1 MOL     -0.046226
    146 C47         5.8180    3.4140   -4.0000 c3        1 MOL      0.088713
    147 C48         6.3760    4.8310   -4.2580 c3        1 MOL      0.015493
    148 N13         5.9900    5.4060   -5.5810 n4        1 MOL     -0.201649
    149 H67         5.8690   -1.1730   -2.1730 hn        1 MOL      0.250435
    150 H68         7.5740    1.0900   -1.4030 h1        1 MOL      0.106247
    151 H69         4.8100    0.9700   -2.5330 hc        1 MOL      0.074564
    152 H70         6.3060    0.7950   -3.4130 hc        1 MOL      0.074564
    153 H71         7.0770    3.0910   -2.2780 hc        1 MOL      0.028386
    154 H72         5.4170    3.3460   -1.9180 hc        1 MOL      0.028386
    155 H73         4.7730    3.3810   -4.2770 hc        1 MOL      0.012224
    156 H74         6.3080    2.7860   -4.7390 hc        1 MOL      0.012224
    157 H75         7.4620    4.8320   -4.2580 hx        1 MOL      0.062757
    158 H76         6.1140    5.4880   -3.4240 hx        1 MOL      0.062757
    159 H77         6.6100    5.0730   -6.2990 hn        1 MOL      0.246743
    160 H78         5.0490    5.2240   -5.8990 hn        1 MOL      0.246743
    161 H79         6.2730    6.3740   -5.6700 hn        1 MOL      0.246743
    162 N14         5.0670    0.4580    0.5130 n         1 MOL      0.054966
    163 C49         4.3800    0.8680    1.7560 c3        1 MOL     -0.233165
    164 C50         5.1130    0.3640    3.0730 c         1 MOL      0.510118
    165 O22         5.1170    1.1060    4.0890 o         1 MOL     -0.541967
    166 C51         2.9160    0.3520    1.5860 c3        1 MOL      0.212868
    167 C52         2.1110    1.2150    0.6420 c3        1 MOL     -0.460233
    168 C53         0.7850    0.5650    0.2330 c         1 MOL      0.934120
    169 O23         0.7120   -0.5800   -0.2130 o         1 MOL     -0.782635
    170 O24        -0.3210    1.2160    0.1780 o         1 MOL     -0.782635
    171 H80         4.5390   -0.0020   -0.2170 hn        1 MOL      0.324234
    172 H81         4.4290    1.9630    1.8170 h1        1 MOL      0.101289
    173 H82         2.4040    0.3370    2.5480 hc        1 MOL     -0.005654
    174 H83         2.9580   -0.6500    1.1580 hc        1 MOL     -0.005654
    175 H84         2.6500    1.4920   -0.2600 hc        1 MOL      0.061523
    176 H85         1.8520    2.1040    1.2110 hc        1 MOL      0.061523
    177 N15         5.6580   -0.8830    3.1380 n         1 MOL     -0.158042
    178 C54         6.6170   -1.2730    4.1170 c3        1 MOL     -0.502233
    179 H86         6.2500   -1.0080    5.1090 h1        1 MOL      0.173907
    180 H87         6.7740   -2.3500    4.0630 h1        1 MOL      0.173907
    181 H88         7.5590   -0.7570    3.9290 h1        1 MOL      0.173907
    182 H89         5.5310   -1.5200    2.3600 hn        1 MOL      0.151712
    183 Ca1        -1.8690   -0.1550   -1.1720 Ca        1 MOL      1.751515
    184 O25        -0.4940    0.4550   -3.3890 oh        1 MOL     -0.910068
    185 H90        -1.0290    1.2170   -3.5890 ho        1 MOL      0.416554
    186 H91        -0.4910   -0.0660   -4.1880 ho        1 MOL      0.416554
    187 O26        -1.1730   -2.6420   -2.2880 oh        1 MOL     -0.910068
    188 H92        -1.8040   -3.2360   -2.7140 ho        1 MOL      0.416554
    189 H93        -0.3700   -2.7380   -2.8040 ho        1 MOL      0.416554
@<TRIPOS>BOND
     1    1    2 1   
     2    1    4 1   
     3    1    5 1   
     4    1    6 1   
     5    2    3 2   
     6    2    7 1   
     7    7    8 1   
     8    7   15 1   
     9    8    9 1   
    10    8   11 1   
    11    8   16 1   
    12    9   10 2   
    13    9   19 1   
    14   11   12 1   
    15   11   17 1   
    16   11   18 1   
    17   12   13 1   
    18   12   14 1   
    19   19   20 1   
    20   19   28 1   
    21   20   21 1   
    22   20   23 1   
    23   20   29 1   
    24   21   22 2   
    25   21   41 1   
    26   23   24 1   
    27   23   30 1   
    28   23   31 1   
    29   24   25 1   
    30   24   32 1   
    31   24   33 1   
    32   25   26 1   
    33   25   34 1   
    34   25   35 1   
    35   26   27 1   
    36   26   36 1   
    37   26   37 1   
    38   27   38 1   
    39   27   39 1   
    40   27   40 1   
    41   41   42 1   
    42   41   49 1   
    43   42   43 1   
    44   42   45 1   
    45   42   50 1   
    46   43   44 2   
    47   43   53 1   
    48   45   46 1   
    49   45   51 1   
    50   45   52 1   
    51   46   47 1   
    52   46   48 1   
    53   53   54 1   
    54   53   57 1   
    55   54   55 1   
    56   54   58 1   
    57   54   59 1   
    58   55   56 2   
    59   55   60 1   
    60   60   61 1   
    61   60   68 1   
    62   61   62 1   
    63   61   64 1   
    64   61   69 1   
    65   62   63 2   
    66   62   72 1   
    67   64   65 1   
    68   64   70 1   
    69   64   71 1   
    70   65   66 1   
    71   65   67 1   
    72   72   73 1   
    73   72   76 1   
    74   73   74 1   
    75   73   77 1   
    76   73   78 1   
    77   74   75 2   
    78   74   79 1   
    79   79   80 1   
    80   79   86 1   
    81   80   81 1   
    82   80   83 1   
    83   80   87 1   
    84   81   82 2   
    85   81   93 1   
    86   83   84 1   
    87   83   85 1   
    88   83   88 1   
    89   84   90 1   
    90   84   91 1   
    91   84   92 1   
    92   85   89 1   
    93   93   94 1   
    94   93  101 1   
    95   94   95 1   
    96   94   97 1   
    97   94  102 1   
    98   95   96 2   
    99   95  112 1   
   100   97   98 1   
   101   97   99 1   
   102   97  103 1   
   103   98  100 1   
   104   98  104 1   
   105   98  105 1   
   106   99  106 1   
   107   99  107 1   
   108   99  108 1   
   109  100  109 1   
   110  100  110 1   
   111  100  111 1   
   112  112  113 1   
   113  112  119 1   
   114  113  114 1   
   115  113  116 1   
   116  113  120 1   
   117  114  115 2   
   118  114  126 1   
   119  116  117 1   
   120  116  118 1   
   121  116  121 1   
   122  117  123 1   
   123  117  124 1   
   124  117  125 1   
   125  118  122 1   
   126  126  127 1   
   127  126  133 1   
   128  127  128 1   
   129  127  130 1   
   130  127  134 1   
   131  128  129 2   
   132  128  140 1   
   133  130  131 1   
   134  130  132 1   
   135  130  135 1   
   136  131  137 1   
   137  131  138 1   
   138  131  139 1   
   139  132  136 1   
   140  140  141 1   
   141  140  149 1   
   142  141  142 1   
   143  141  144 1   
   144  141  150 1   
   145  142  143 2   
   146  142  162 1   
   147  144  145 1   
   148  144  151 1   
   149  144  152 1   
   150  145  146 1   
   151  145  153 1   
   152  145  154 1   
   153  146  147 1   
   154  146  155 1   
   155  146  156 1   
   156  147  148 1   
   157  147  157 1   
   158  147  158 1   
   159  148  159 1   
   160  148  160 1   
   161  148  161 1   
   162  162  163 1   
   163  162  171 1   
   164  163  164 1   
   165  163  166 1   
   166  163  172 1   
   167  164  165 2   
   168  164  177 1   
   169  166  167 1   
   170  166  173 1   
   171  166  174 1   
   172  167  168 1   
   173  167  175 1   
   174  167  176 1   
   175  168  169 1   
   176  168  170 1   
   177  177  178 1   
   178  177  182 1   
   179  178  179 1   
   180  178  180 1   
   181  178  181 1   
   182  184  185 1   
   183  184  186 1   
   184  187  188 1   
   185  187  189 1   
@<TRIPOS>SUBSTRUCTURE
     1 MOL         1 TEMP              0 ****  ****    0 ROOT
