@<TRIPOS>MOLECULE
MOL
  189   185     1     0     0
SMALL
resp


@<TRIPOS>ATOM
      1 C1          2.0700   -3.1360    6.1680 c3        1 MOL     -0.472582
      2 C2          2.0700   -2.8500    4.6550 c         1 MOL      0.723261
      3 O1          1.4000   -1.9500    4.1740 o         1 MOL     -0.538634
      4 H1          3.0120   -3.6090    6.4470 hc        1 MOL      0.113771
      5 H2          1.9580   -2.2000    6.7150 hc        1 MOL      0.113771
      6 H3          1.2430   -3.8020    6.4130 hc        1 MOL      0.113771
      7 N1          2.6320   -3.8350    3.9730 n         1 MOL     -0.589709
      8 C3          3.1630   -3.6650    2.6010 c3        1 MOL      0.177967
      9 C4          3.1250   -4.8630    1.6850 c         1 MOL      0.389011
     10 O2          3.5150   -6.0060    1.9720 o         1 MOL     -0.577965
     11 C5          4.5890   -3.0440    2.6330 c3        1 MOL     -0.079599
     12 C6          4.9600   -2.6730    1.2170 c         1 MOL      0.686300
     13 O3          4.3170   -1.8390    0.5330 o         1 MOL     -0.629311
     14 O4          5.9250   -3.3270    0.8210 o         1 MOL     -0.629311
     15 H4          3.0110   -4.5850    4.5370 hn        1 MOL      0.316164
     16 H5          2.5580   -2.8840    2.1570 h1        1 MOL      0.041442
     17 H6          5.3180   -3.7950    2.9240 hc        1 MOL     -0.033466
     18 H7          4.5950   -2.2360    3.3570 hc        1 MOL     -0.033466
     19 N2          2.7850   -4.5630    0.4720 n         1 MOL      0.074367
     20 C7          2.8040   -5.4750   -0.6610 c3        1 MOL     -0.050218
     21 C8          3.8100   -5.0130   -1.7920 c         1 MOL      0.392604
     22 O5          4.4080   -5.8530   -2.5690 o         1 MOL     -0.574102
     23 C9          1.3440   -5.5660   -1.2730 c3        1 MOL      0.237946
     24 C10         0.4370   -6.3580   -0.3280 c3        1 MOL      0.161957
     25 C11         1.3370   -6.1180   -2.7010 c3        1 MOL     -0.357711
     26 C12         0.7680   -7.7950    0.0440 c3        1 MOL     -0.149452
     27 H8          2.2950   -3.7000    0.3310 hn        1 MOL     -0.009885
     28 H9          3.0020   -6.5110   -0.3790 h1        1 MOL      0.050238
     29 H10         0.8760   -4.5890   -1.3430 hc        1 MOL     -0.010890
     30 H11        -0.4820   -6.4770   -0.9070 hc        1 MOL     -0.059014
     31 H12         0.2520   -5.7600    0.5700 hc        1 MOL     -0.059014
     32 H13         1.7380   -5.3940   -3.4050 hc        1 MOL      0.081791
     33 H14         1.7850   -7.1180   -2.6750 hc        1 MOL      0.081791
     34 H15         0.2850   -6.2700   -2.9610 hc        1 MOL      0.081791
     35 H16        -0.0240   -8.1330    0.7220 hc        1 MOL      0.021217
     36 H17         0.8260   -8.4620   -0.8160 hc        1 MOL      0.021217
     37 H18         1.6620   -7.7780    0.6640 hc        1 MOL      0.021217
     38 N3          3.8840   -3.6780   -2.0390 n         1 MOL     -0.157069
     39 C13         4.5360   -3.1730   -3.2730 c3        1 MOL      0.020039
     40 C14         5.7400   -2.3040   -3.1270 c         1 MOL      0.348123
     41 O6          6.3440   -1.9020   -4.1100 o         1 MOL     -0.530291
     42 C15         3.5030   -2.3840   -4.0840 c3        1 MOL     -0.290131
     43 C16         2.9130   -1.1640   -3.2970 c         1 MOL      0.787232
     44 O7          3.3190   -0.7390   -2.2470 o         1 MOL     -0.708783
     45 O8          1.9230   -0.5810   -3.7630 o         1 MOL     -0.708783
     46 H19         3.5400   -2.9870   -1.3950 hn        1 MOL      0.136637
     47 H20         4.7640   -4.0660   -3.8540 h1        1 MOL      0.121176
     48 H21         2.7050   -3.0350   -4.4320 hc        1 MOL      0.080162
     49 H22         4.0180   -1.9900   -4.9650 hc        1 MOL      0.080162
     50 N4          6.1950   -2.0560   -1.8850 n         1 MOL     -0.066793
     51 C17         7.2010   -1.1040   -1.5200 c3        1 MOL     -0.199080
     52 C18         7.0240    0.4530   -1.9460 c         1 MOL      0.435626
     53 O9          8.0120    1.1340   -2.1390 o         1 MOL     -0.588595
     54 H23         5.6120   -2.2580   -1.0830 hn        1 MOL      0.003755
     55 H24         8.1690   -1.4580   -1.8740 h1        1 MOL      0.094536
     56 H25         7.2340   -1.0840   -0.4360 h1        1 MOL      0.094536
     57 N5          5.8320    0.9600   -2.3040 n         1 MOL      0.002625
     58 C19         5.6520    2.3000   -2.8790 c3        1 MOL     -0.410331
     59 C20         5.9220    3.5760   -1.9900 c         1 MOL      0.631808
     60 O10         6.1230    4.6350   -2.4720 o         1 MOL     -0.578655
     61 C21         4.2270    2.4610   -3.4790 c3        1 MOL     -0.017773
     62 C22         3.0460    2.6940   -2.5060 c         1 MOL      0.745043
     63 O11         3.2230    2.3850   -1.3110 o         1 MOL     -0.711477
     64 O12         1.9940    3.0610   -3.0130 o         1 MOL     -0.711477
     65 H26         5.0810    0.2930   -2.3290 hn        1 MOL      0.222021
     66 H27         6.3420    2.4030   -3.7230 h1        1 MOL      0.154088
     67 H28         3.8930    1.5990   -4.0720 hc        1 MOL      0.021294
     68 H29         4.2080    3.2840   -4.1820 hc        1 MOL      0.021294
     69 N6          5.8970    3.3930   -0.6910 n         1 MOL     -0.333662
     70 C23         6.2080    4.5130    0.2480 c3        1 MOL     -0.042567
     71 C24         5.0900    5.0560    1.1420 c         1 MOL      0.443469
     72 O13         5.3310    6.0710    1.7620 o         1 MOL     -0.573340
     73 H30         5.5490    2.5030   -0.3810 hn        1 MOL      0.219585
     74 H31         6.6840    5.3320   -0.3010 h1        1 MOL      0.070386
     75 H32         7.0360    4.0950    0.8260 h1        1 MOL      0.070386
     76 N7          3.9200    4.4340    1.0400 n         1 MOL     -0.265692
     77 C25         2.6470    4.8820    1.6290 c3        1 MOL     -0.083199
     78 C26         1.8180    3.6170    1.8770 c         1 MOL      0.430794
     79 O14         1.9530    2.5890    1.2250 o         1 MOL     -0.551441
     80 C27         1.8570    5.7960    0.7040 c3        1 MOL     -0.002152
     81 C28         2.3430    7.2030    0.7520 c3        1 MOL     -0.374566
     82 C29         1.5590    8.2890   -0.0740 c         1 MOL      0.702008
     83 N8          1.5320    8.2980   -1.3640 n         1 MOL     -0.818459
     84 O15         0.9060    9.1420    0.4430 o         1 MOL     -0.587062
     85 H33         3.9170    3.6690    0.3880 hn        1 MOL      0.235008
     86 H34         2.9130    5.3300    2.5890 h1        1 MOL      0.104845
     87 H35         0.8310    5.8920    1.0810 hc        1 MOL      0.090306
     88 H36         1.8590    5.4820   -0.3430 hc        1 MOL      0.090306
     89 H37         3.3230    7.1290    0.2790 hc        1 MOL      0.130165
     90 H38         2.4130    7.5690    1.7790 hc        1 MOL      0.130165
     91 H39         2.0520    7.6390   -1.9250 hn        1 MOL      0.367953
     92 H40         1.0320    9.0030   -1.8970 hn        1 MOL      0.367953
     93 N9          0.9900    3.5440    2.9620 n         1 MOL     -0.381400
     94 C30        -0.0910    2.5240    3.0780 c3        1 MOL      0.241319
     95 C31        -1.3400    2.8890    2.4200 c         1 MOL      0.382328
     96 O16        -1.6710    4.0660    2.4300 o         1 MOL     -0.588701
     97 C32        -0.2960    2.0010    4.5350 c3        1 MOL      0.125662
     98 C33        -1.2760    0.8010    4.7450 c3        1 MOL     -0.166344
     99 C34         0.9990    1.7590    5.3440 c3        1 MOL     -0.166344
    100 H41         1.0020    4.3730    3.5550 hn        1 MOL      0.233486
    101 H42         0.2290    1.6810    2.4670 h1        1 MOL      0.066321
    102 H43        -0.7440    2.8850    4.9990 hc        1 MOL     -0.039313
    103 H44        -1.0280    0.4280    5.7350 hc        1 MOL      0.026892
    104 H45        -2.3420    1.0000    4.6390 hc        1 MOL      0.026892
    105 H46        -0.9540   -0.0050    4.0820 hc        1 MOL      0.026892
    106 H47         0.7450    1.5890    6.3850 hc        1 MOL      0.026892
    107 H48         1.5430    0.9060    4.9170 hc        1 MOL      0.026892
    108 H49         1.5990    2.6640    5.3030 hc        1 MOL      0.026892
    109 N10        -1.9440    1.9110    1.7420 n         1 MOL      0.047277
    110 C35        -3.1040    2.1390    0.9280 c3        1 MOL      0.037271
    111 C36        -4.3780    1.3660    1.2800 c         1 MOL      0.113494
    112 O17        -4.2970    0.2690    1.7730 o         1 MOL     -0.239626
    113 C37        -2.6900    1.8690   -0.5230 c3        1 MOL     -0.111710
    114 C38        -3.8050    1.4340   -1.4700 c         1 MOL      0.603752
    115 N11        -4.3140    2.3110   -2.2270 n         1 MOL     -0.688642
    116 O18        -4.2820    0.3530   -1.2750 o         1 MOL     -0.435120
    117 H50        -1.4600    1.0210    1.6310 hn        1 MOL     -0.060942
    118 H51        -3.3080    3.2080    1.0120 h1        1 MOL      0.049418
    119 H52        -1.9500    1.0720   -0.6150 hc        1 MOL      0.050899
    120 H53        -2.1170    2.7520   -0.7950 hc        1 MOL      0.050899
    121 H54        -3.9940    3.2620   -2.3020 hn        1 MOL      0.336597
    122 H55        -5.1190    1.9790   -2.7350 hn        1 MOL      0.336597
    123 N12        -5.5620    1.9630    1.0310 n         1 MOL     -0.091161
    124 C39        -6.8750    1.6710    1.6490 c3        1 MOL      0.036991
    125 C40        -7.2090    0.1980    1.3280 c         1 MOL      0.403981
    126 O19        -8.0620   -0.3500    2.0360 o         1 MOL     -0.591766
    127 C41        -7.9270    2.6190    1.0560 c3        1 MOL     -0.377067
    128 C42        -8.3750    2.4020   -0.3820 ca        1 MOL      0.229487
    129 C43        -9.5800    1.6700   -0.6070 ca        1 MOL     -0.353481
    130 C44        -7.5810    2.8900   -1.4540 ca        1 MOL     -0.353481
    131 C45        -9.9250    1.4270   -1.9720 ca        1 MOL     -0.156620
    132 C46        -8.0420    2.7060   -2.7650 ca        1 MOL     -0.156620
    133 C47        -9.2310    2.0110   -3.0320 ca        1 MOL      0.251924
    134 O20        -9.7130    1.8290   -4.2790 oh        1 MOL     -0.485790
    135 H56        -5.5140    2.8750    0.5900 hn        1 MOL      0.150436
    136 H57        -6.8320    1.8160    2.7290 h1        1 MOL      0.073300
    137 H58        -7.5400    3.6350    1.1340 hc        1 MOL      0.120535
    138 H59        -8.8630    2.5490    1.6170 hc        1 MOL      0.120535
    139 H60       -10.2110    1.2220    0.1420 ha        1 MOL      0.191125
    140 H61        -6.6680    3.4460   -1.3060 ha        1 MOL      0.191125
    141 H62       -10.8250    0.8650   -2.1810 ha        1 MOL      0.136718
    142 H63        -7.4480    3.0930   -3.5770 ha        1 MOL      0.136718
    143 H64       -10.6320    1.5680   -4.3310 ho        1 MOL      0.378220
    144 N13        -6.7200   -0.3490    0.2390 n         1 MOL      0.212329
    145 C48        -7.0420   -1.7740   -0.1680 c3        1 MOL     -0.014059
    146 C49        -5.8460   -2.7010    0.1290 c         1 MOL      0.405628
    147 O21        -5.9890   -3.9320    0.2280 o         1 MOL     -0.544781
    148 C50        -7.5270   -1.9640   -1.6520 c3        1 MOL     -0.151156
    149 C51        -6.5400   -1.4070   -2.7360 c3        1 MOL     -0.026284
    150 C52        -6.9240   -2.0070   -4.1340 c         1 MOL      0.630999
    151 O22        -6.1240   -2.7970   -4.6170 o         1 MOL     -0.717354
    152 O23        -7.8340   -1.5380   -4.8450 o         1 MOL     -0.717354
    153 H65        -6.0630    0.2020   -0.2900 hn        1 MOL      0.092120
    154 H66        -7.7360   -2.1280    0.5900 h1        1 MOL      0.046143
    155 H67        -8.5110   -1.5010   -1.7740 hc        1 MOL      0.038828
    156 H68        -7.5780   -3.0350   -1.8320 hc        1 MOL      0.038828
    157 H69        -5.5370   -1.7670   -2.5290 hc        1 MOL      0.017095
    158 H70        -6.5800   -0.3210   -2.7090 hc        1 MOL      0.017095
    159 N14        -4.6510   -2.1530    0.4680 n         1 MOL      0.412248
    160 C53        -3.3970   -2.8500    0.8220 c3        1 MOL     -0.564967
    161 C54        -3.5780   -3.3640    2.3060 c         1 MOL      0.605692
    162 O24        -3.2800   -4.4940    2.7420 o         1 MOL     -0.544804
    163 C55        -2.1790   -1.8940    0.5280 c3        1 MOL      0.342098
    164 C56        -0.8360   -2.5530    0.8560 c3        1 MOL     -0.215477
    165 C57         0.3530   -1.6540    0.7550 c         1 MOL      0.432475
    166 O25         0.3210   -0.4480    1.1740 o         1 MOL     -0.550331
    167 O26         1.2380   -1.9620   -0.1050 o         1 MOL     -0.550331
    168 H71        -4.6550   -1.1540    0.5880 hn        1 MOL     -0.763288
    169 H72        -3.4150   -3.7330    0.1720 h1        1 MOL      0.173405
    170 H73        -2.2650   -1.0160    1.1760 hc        1 MOL      0.090136
    171 H74        -2.1100   -1.6790   -0.5440 hc        1 MOL      0.090136
    172 H75        -0.6650   -3.4680    0.2840 hc        1 MOL      0.066349
    173 H76        -0.9700   -2.7650    1.9100 hc        1 MOL      0.066349
    174 N15        -4.3000   -2.5520    3.0890 n         1 MOL     -0.302613
    175 C58        -4.1710   -2.7880    4.5690 c3        1 MOL     -0.166677
    176 H77        -3.2230   -3.2850    4.7760 h1        1 MOL      0.080981
    177 H78        -4.2020   -1.8340    5.0950 h1        1 MOL      0.080981
    178 H79        -4.9920   -3.4190    4.9100 h1        1 MOL      0.080981
    179 H80        -4.5020   -1.6170    2.7420 hn        1 MOL      0.282691
    180 Ca1         2.6800    0.2610    0.0580 Ca        1 MOL      1.693345
    181 O27         2.8560   -0.0790    2.6760 oh        1 MOL     -0.932624
    182 H81         3.5430    0.0450    3.3320 ho        1 MOL      0.437900
    183 H82         2.1270   -0.4820    3.1590 ho        1 MOL      0.437900
    184 O28         5.0740    1.0260    0.9520 oh        1 MOL     -0.932624
    185 H83         4.8220    1.0080    1.8680 ho        1 MOL      0.437900
    186 H84         6.0320    1.1210    0.9630 ho        1 MOL      0.437900
    187 O29         0.8930    0.9510   -1.9520 oh        1 MOL     -0.932624
    188 H85         1.1420    0.3450   -2.6440 ho        1 MOL      0.437900
    189 H86         1.1470    1.8140   -2.2790 ho        1 MOL      0.437900
@<TRIPOS>BOND
     1    1    2 1   
     2    1    4 1   
     3    1    5 1   
     4    1    6 1   
     5    2    3 2   
     6    2    7 1   
     7    7    8 1   
     8    7   15 1   
     9    8    9 1   
    10    8   11 1   
    11    8   16 1   
    12    9   10 2   
    13    9   19 1   
    14   11   12 1   
    15   11   17 1   
    16   11   18 1   
    17   12   13 1   
    18   12   14 1   
    19   19   20 1   
    20   19   27 1   
    21   20   21 1   
    22   20   23 1   
    23   20   28 1   
    24   21   22 2   
    25   21   38 1   
    26   23   24 1   
    27   23   25 1   
    28   23   29 1   
    29   24   26 1   
    30   24   30 1   
    31   24   31 1   
    32   25   32 1   
    33   25   33 1   
    34   25   34 1   
    35   26   35 1   
    36   26   36 1   
    37   26   37 1   
    38   38   39 1   
    39   38   46 1   
    40   39   40 1   
    41   39   42 1   
    42   39   47 1   
    43   40   41 2   
    44   40   50 1   
    45   42   43 1   
    46   42   48 1   
    47   42   49 1   
    48   43   44 1   
    49   43   45 1   
    50   50   51 1   
    51   50   54 1   
    52   51   52 1   
    53   51   55 1   
    54   51   56 1   
    55   52   53 2   
    56   52   57 1   
    57   57   58 1   
    58   57   65 1   
    59   58   59 1   
    60   58   61 1   
    61   58   66 1   
    62   59   60 2   
    63   59   69 1   
    64   61   62 1   
    65   61   67 1   
    66   61   68 1   
    67   62   63 1   
    68   62   64 1   
    69   69   70 1   
    70   69   73 1   
    71   70   71 1   
    72   70   74 1   
    73   70   75 1   
    74   71   72 2   
    75   71   76 1   
    76   76   77 1   
    77   76   85 1   
    78   77   78 1   
    79   77   80 1   
    80   77   86 1   
    81   78   79 2   
    82   78   93 1   
    83   80   81 1   
    84   80   87 1   
    85   80   88 1   
    86   81   82 1   
    87   81   89 1   
    88   81   90 1   
    89   82   83 1   
    90   82   84 2   
    91   83   91 1   
    92   83   92 1   
    93   93   94 1   
    94   93  100 1   
    95   94   95 1   
    96   94   97 1   
    97   94  101 1   
    98   95   96 2   
    99   95  109 1   
   100   97   98 1   
   101   97   99 1   
   102   97  102 1   
   103   98  103 1   
   104   98  104 1   
   105   98  105 1   
   106   99  106 1   
   107   99  107 1   
   108   99  108 1   
   109  109  110 1   
   110  109  117 1   
   111  110  111 1   
   112  110  113 1   
   113  110  118 1   
   114  111  112 2   
   115  111  123 1   
   116  113  114 1   
   117  113  119 1   
   118  113  120 1   
   119  114  115 1   
   120  114  116 2   
   121  115  121 1   
   122  115  122 1   
   123  123  124 1   
   124  123  135 1   
   125  124  125 1   
   126  124  127 1   
   127  124  136 1   
   128  125  126 2   
   129  125  144 1   
   130  127  128 1   
   131  127  137 1   
   132  127  138 1   
   133  128  129 ar  
   134  128  130 ar  
   135  129  131 ar  
   136  129  139 1   
   137  130  132 ar  
   138  130  140 1   
   139  131  133 ar  
   140  131  141 1   
   141  132  133 ar  
   142  132  142 1   
   143  133  134 1   
   144  134  143 1   
   145  144  145 1   
   146  144  153 1   
   147  145  146 1   
   148  145  148 1   
   149  145  154 1   
   150  146  147 2   
   151  146  159 1   
   152  148  149 1   
   153  148  155 1   
   154  148  156 1   
   155  149  150 1   
   156  149  157 1   
   157  149  158 1   
   158  150  151 1   
   159  150  152 1   
   160  159  160 1   
   161  159  168 1   
   162  160  161 1   
   163  160  163 1   
   164  160  169 1   
   165  161  162 2   
   166  161  174 1   
   167  163  164 1   
   168  163  170 1   
   169  163  171 1   
   170  164  165 1   
   171  164  172 1   
   172  164  173 1   
   173  165  166 1   
   174  165  167 1   
   175  174  175 1   
   176  174  179 1   
   177  175  176 1   
   178  175  177 1   
   179  175  178 1   
   180  181  182 1   
   181  181  183 1   
   182  184  185 1   
   183  184  186 1   
   184  187  188 1   
   185  187  189 1   
@<TRIPOS>SUBSTRUCTURE
     1 MOL         1 TEMP              0 ****  ****    0 ROOT
