@<TRIPOS>MOLECULE
MOL
  189   185     1     0     0
SMALL
resp


@<TRIPOS>ATOM
      1 C1         -0.7430    1.5950    6.2240 c3        1 MOL     -0.207247
      2 C2         -1.0760    1.4480    4.7510 c         1 MOL      0.749397
      3 O1         -0.2310    1.7860    3.9500 o         1 MOL     -0.619917
      4 H1         -1.2590    2.4650    6.6280 hc        1 MOL      0.047813
      5 H2         -1.0630    0.7020    6.7610 hc        1 MOL      0.047813
      6 H3          0.3330    1.7250    6.3420 hc        1 MOL      0.047813
      7 N1         -2.2930    1.0300    4.4080 n         1 MOL     -0.674775
      8 C3         -2.8460    1.0440    3.0790 c3        1 MOL      0.380222
      9 C4         -2.9930    2.5190    2.5890 c         1 MOL      0.517824
     10 O2         -3.9650    3.1860    2.8270 o         1 MOL     -0.575940
     11 C5         -4.1160    0.2320    2.9460 c3        1 MOL     -0.413889
     12 C6         -4.6530    0.1160    1.5160 c         1 MOL      0.894878
     13 O3         -3.8760    0.3530    0.5700 o         1 MOL     -0.679116
     14 O4         -5.8580   -0.1660    1.4280 o         1 MOL     -0.679116
     15 H4         -2.8790    0.5790    5.0930 hn        1 MOL      0.324564
     16 H5         -2.1780    0.4770    2.4350 h1        1 MOL     -0.049170
     17 H6         -4.8670    0.6720    3.5990 hc        1 MOL      0.081413
     18 H7         -3.8490   -0.7670    3.2860 hc        1 MOL      0.081413
     19 N2         -2.0300    3.1060    1.8760 n         1 MOL     -0.312452
     20 C7         -1.8410    4.5030    1.3950 c3        1 MOL      0.035813
     21 C8         -2.9700    4.9920    0.4270 c         1 MOL      0.699624
     22 O5         -3.2790    6.1990    0.5160 o         1 MOL     -0.601623
     23 C9         -0.3730    4.5500    0.7740 c3        1 MOL     -0.243282
     24 C10         0.1910    5.8380    0.2210 c3        1 MOL     -0.153935
     25 C11         0.1580    6.9610    1.2950 c3        1 MOL     -0.004976
     26 C12         1.0110    8.2950    0.9430 c3        1 MOL      0.046597
     27 N3          0.2500    9.2750    0.1450 n4        1 MOL     -0.510925
     28 H8         -1.3050    2.4140    1.7230 hn        1 MOL      0.215748
     29 H9         -1.8150    5.2130    2.2190 h1        1 MOL      0.012304
     30 H10        -0.4390    3.7370    0.0590 hc        1 MOL      0.163404
     31 H11         0.2710    4.1580    1.5480 hc        1 MOL      0.163404
     32 H12        -0.3380    6.1830   -0.6630 hc        1 MOL      0.048911
     33 H13         1.2560    5.6570    0.0550 hc        1 MOL      0.048911
     34 H14         0.7050    6.5410    2.1380 hc        1 MOL      0.056238
     35 H15        -0.8890    7.2380    1.4260 hc        1 MOL      0.056238
     36 H16         1.9510    8.0220    0.4530 hx        1 MOL      0.079838
     37 H17         1.3180    8.8230    1.8440 hx        1 MOL      0.079838
     38 H18        -0.6340    9.4280    0.6200 hn        1 MOL      0.371204
     39 H19         0.7260   10.1530    0.0710 hn        1 MOL      0.371204
     40 H20         0.0700    8.9030   -0.7780 hn        1 MOL      0.371204
     41 N4         -3.5160    4.0400   -0.3700 n         1 MOL     -0.546390
     42 C13        -4.5280    4.3180   -1.4470 c3        1 MOL      0.167702
     43 C14        -5.8540    3.6360   -1.2880 c         1 MOL      0.485531
     44 O6         -6.8300    3.9430   -1.9500 o         1 MOL     -0.540319
     45 C15        -3.8860    4.0830   -2.8810 c3        1 MOL     -0.333171
     46 C16        -3.1740    2.7040   -2.9920 c         1 MOL      0.811618
     47 O7         -2.6300    2.5560   -4.1060 o         1 MOL     -0.705268
     48 O8         -3.1370    1.7970   -2.1390 o         1 MOL     -0.705268
     49 H21        -3.1550    3.1040   -0.2570 hn        1 MOL      0.187515
     50 H22        -4.8710    5.3550   -1.4030 h1        1 MOL      0.033152
     51 H23        -3.2170    4.9370   -3.0190 hc        1 MOL      0.098030
     52 H24        -4.7700    4.0970   -3.5100 hc        1 MOL      0.098030
     53 N5         -6.0570    2.5970   -0.4590 n         1 MOL     -0.135637
     54 C17        -7.3630    1.9720   -0.2770 c3        1 MOL     -0.177467
     55 C18        -7.6040    0.8740   -1.2860 c         1 MOL      0.690725
     56 O9         -8.4540    1.0550   -2.1550 o         1 MOL     -0.556420
     57 H25        -5.2200    2.1130   -0.1580 hn        1 MOL      0.119451
     58 H26        -8.1650    2.7090   -0.2320 h1        1 MOL      0.080709
     59 H27        -7.3900    1.4640    0.6910 h1        1 MOL      0.080709
     60 N6         -6.8680   -0.2510   -1.1560 n         1 MOL     -0.361395
     61 C19        -7.0380   -1.4840   -1.9240 c3        1 MOL     -0.177418
     62 C20        -6.9710   -2.7500   -1.0710 c         1 MOL      0.561499
     63 O10        -7.0900   -3.8250   -1.6180 o         1 MOL     -0.529197
     64 C21        -5.9680   -1.4730   -3.0190 c3        1 MOL     -0.011282
     65 C22        -4.4940   -1.3640   -2.4960 c         1 MOL      0.604678
     66 O11        -4.1470   -1.8320   -1.3860 o         1 MOL     -0.647877
     67 O12        -3.6590   -0.8010   -3.2430 o         1 MOL     -0.647877
     68 H28        -6.2200   -0.2520   -0.3800 hn        1 MOL      0.133602
     69 H29        -8.0490   -1.5500   -2.3290 h1        1 MOL      0.122872
     70 H30        -6.1020   -0.6540   -3.7350 hc        1 MOL      0.046313
     71 H31        -5.9850   -2.3050   -3.7240 hc        1 MOL      0.046313
     72 N7         -6.6510   -2.7740    0.2620 n         1 MOL     -0.340006
     73 C23        -6.4850   -4.0170    0.9740 c3        1 MOL     -0.236420
     74 C24        -5.1790   -4.8090    0.6760 c         1 MOL      0.532129
     75 O13        -5.2170   -6.0180    0.7610 o         1 MOL     -0.526034
     76 H32        -6.3460   -1.9110    0.6990 hn        1 MOL      0.289991
     77 H33        -7.3790   -4.6280    0.8330 h1        1 MOL      0.115801
     78 H34        -6.3960   -3.6430    1.9930 h1        1 MOL      0.115801
     79 N8         -4.0660   -4.1420    0.2500 n         1 MOL     -0.117303
     80 C25        -2.7660   -4.7470    0.0790 c3        1 MOL     -0.457341
     81 C26        -1.6340   -3.7490    0.3390 c         1 MOL      0.836108
     82 O14        -1.9060   -2.5940    0.4480 o         1 MOL     -0.669229
     83 C27        -2.5400   -5.2980   -1.3150 c3        1 MOL      0.565991
     84 C28        -3.3770   -6.5020   -1.7190 c3        1 MOL     -0.635395
     85 O15        -2.8700   -4.3670   -2.2790 oh        1 MOL     -0.568808
     86 H35        -4.1750   -3.1700   -0.0070 hn        1 MOL      0.139715
     87 H36        -2.7610   -5.6040    0.7610 h1        1 MOL      0.142902
     88 H37        -1.4890   -5.5470   -1.4480 h1        1 MOL     -0.030218
     89 H38        -3.4260   -3.7970   -1.7400 ho        1 MOL      0.347578
     90 H39        -4.3880   -6.1940   -1.9500 hc        1 MOL      0.161342
     91 H40        -2.9090   -6.8920   -2.6210 hc        1 MOL      0.161342
     92 H41        -3.4780   -7.1950   -0.8760 hc        1 MOL      0.161342
     93 N9         -0.4240   -4.2440    0.6420 n         1 MOL     -0.705626
     94 C29         0.7010   -3.3440    1.0290 c3        1 MOL      0.014922
     95 C30         1.9640   -3.6720    0.2080 c         1 MOL      0.575449
     96 O16         2.4320   -4.8490    0.0640 o         1 MOL     -0.544120
     97 C31         0.9910   -3.5110    2.5300 c3        1 MOL      0.001440
     98 C32        -0.0130   -2.7250    3.3860 c3        1 MOL      0.157527
     99 C33         2.4760   -3.2430    2.8860 c3        1 MOL     -0.328126
    100 C34        -0.0890   -2.9370    4.9140 c3        1 MOL     -0.308829
    101 H42        -0.3760   -5.2170    0.8990 hn        1 MOL      0.336225
    102 H43         0.4370   -2.3310    0.7020 h1        1 MOL      0.122065
    103 H44         0.8080   -4.5590    2.7870 hc        1 MOL      0.066116
    104 H45        -1.0670   -2.9290    3.2060 hc        1 MOL      0.027372
    105 H46         0.0320   -1.6420    3.2280 hc        1 MOL      0.027372
    106 H47         2.9360   -4.1920    2.6110 hc        1 MOL      0.073474
    107 H48         2.9680   -2.3910    2.4120 hc        1 MOL      0.073474
    108 H49         2.6260   -3.0930    3.9590 hc        1 MOL      0.073474
    109 H50        -0.1790   -3.9860    5.1970 hc        1 MOL      0.064127
    110 H51         0.7460   -2.3680    5.3140 hc        1 MOL      0.064127
    111 H52        -1.0250   -2.5010    5.2670 hc        1 MOL      0.064127
    112 N10         2.5000   -2.6540   -0.5070 n         1 MOL     -0.321271
    113 C35         3.6830   -2.7420   -1.3820 c3        1 MOL     -0.099252
    114 C36         4.9990   -2.7830   -0.5640 c         1 MOL      0.336026
    115 O17         4.9880   -2.5790    0.6530 o         1 MOL     -0.297495
    116 C37         3.7990   -1.6290   -2.4390 c3        1 MOL      0.318625
    117 C38         2.8190   -1.8800   -3.6010 c3        1 MOL     -0.705176
    118 O18         3.4640   -0.4240   -1.7350 oh        1 MOL     -0.618433
    119 H53         2.1020   -1.7200   -0.4880 hn        1 MOL      0.257110
    120 H54         3.5480   -3.6200   -2.0070 h1        1 MOL      0.095644
    121 H55         4.8320   -1.5750   -2.7840 h1        1 MOL      0.057866
    122 H56         2.5090   -0.3060   -1.7060 ho        1 MOL      0.415527
    123 H57         2.7560   -2.9480   -3.8190 hc        1 MOL      0.211701
    124 H58         1.8190   -1.6720   -3.2370 hc        1 MOL      0.211701
    125 H59         3.1110   -1.2800   -4.4600 hc        1 MOL      0.211701
    126 N11         6.2360   -2.8370   -1.1540 n         1 MOL     -0.360604
    127 C39         7.4940   -2.4400   -0.4930 c3        1 MOL     -0.014642
    128 C40         7.4580   -1.0430    0.1540 c         1 MOL      0.220735
    129 O19         7.9730   -0.9440    1.2890 o         1 MOL     -0.446313
    130 C41         8.6760   -2.5740   -1.4230 c3        1 MOL      0.335469
    131 C42         9.2080   -3.9670   -1.5980 c3        1 MOL     -0.486280
    132 O20         8.3630   -2.0260   -2.6900 oh        1 MOL     -0.683719
    133 H60         6.2310   -2.9270   -2.1600 hn        1 MOL      0.262776
    134 H61         7.7180   -3.1120    0.3410 h1        1 MOL      0.140814
    135 H62         9.4560   -1.8830   -1.1010 h1        1 MOL      0.029804
    136 H63         9.1600   -2.0010   -3.2210 ho        1 MOL      0.420990
    137 H64         8.9740   -4.2820   -2.6180 hc        1 MOL      0.138829
    138 H65        10.2920   -4.0080   -1.5450 hc        1 MOL      0.138829
    139 H66         8.7860   -4.5860   -0.8090 hc        1 MOL      0.138829
    140 N12         6.9380    0.0100   -0.5380 n         1 MOL     -0.111776
    141 C43         7.0120    1.4110    0.0040 c3        1 MOL     -0.032514
    142 C44         6.0210    1.6000    1.2520 c         1 MOL      0.311167
    143 O21         6.3970    2.1780    2.2780 o         1 MOL     -0.478017
    144 C45         6.7570    2.4310   -1.1210 c3        1 MOL     -0.128157
    145 C46         8.0300    2.7100   -2.0170 c3        1 MOL      0.018861
    146 C47         7.6620    3.6480   -3.1620 c3        1 MOL     -0.059519
    147 C48         8.8150    4.1960   -3.9500 c3        1 MOL     -0.014450
    148 N13         9.7540    3.1930   -4.6250 n4        1 MOL     -0.269839
    149 H67         6.8280   -0.1240   -1.5310 hn        1 MOL      0.205234
    150 H68         7.9460    1.7440    0.4470 h1        1 MOL      0.101523
    151 H69         6.3500    3.3420   -0.6800 hc        1 MOL      0.061367
    152 H70         5.9090    2.1080   -1.7170 hc        1 MOL      0.061367
    153 H71         8.5150    1.8150   -2.4040 hc        1 MOL      0.014010
    154 H72         8.7940    3.1250   -1.3530 hc        1 MOL      0.014010
    155 H73         7.1280    4.4820   -2.6950 hc        1 MOL      0.059319
    156 H74         6.9420    3.1930   -3.8360 hc        1 MOL      0.059319
    157 H75         9.4280    4.7240   -3.2110 hx        1 MOL      0.099103
    158 H76         8.4830    4.9510   -4.6560 hx        1 MOL      0.099103
    159 H77        10.5640    3.6910   -4.9600 hn        1 MOL      0.263093
    160 H78        10.1050    2.4430   -4.0350 hn        1 MOL      0.263093
    161 H79         9.3470    2.7860   -5.4570 hn        1 MOL      0.263093
    162 N14         4.8940    0.8980    1.2040 n         1 MOL     -0.087681
    163 C49         4.0300    0.7170    2.3200 c3        1 MOL     -0.186665
    164 C50         4.5370   -0.3010    3.3400 c         1 MOL      0.515949
    165 O22         4.4160   -0.0520    4.5160 o         1 MOL     -0.573070
    166 C51         2.5900    0.4020    1.8680 c3        1 MOL      0.379874
    167 C52         1.8420    1.3260    0.8730 c3        1 MOL     -0.359568
    168 C53         0.6330    0.6190    0.2440 c         1 MOL      0.862818
    169 O23         0.6870   -0.4310   -0.4160 o         1 MOL     -0.810817
    170 O24        -0.4900    1.2260    0.2670 o         1 MOL     -0.810817
    171 H80         4.7070    0.3900    0.3600 hn        1 MOL      0.151327
    172 H81         3.9020    1.6490    2.8870 h1        1 MOL      0.111510
    173 H82         1.9820    0.3580    2.7710 hc        1 MOL     -0.052444
    174 H83         2.6350   -0.5980    1.4420 hc        1 MOL     -0.052444
    175 H84         2.5510    1.4640    0.0540 hc        1 MOL      0.034195
    176 H85         1.4520    2.1460    1.4740 hc        1 MOL      0.034195
    177 N15         5.3090   -1.3480    3.0570 n         1 MOL      0.001530
    178 C54         5.8620   -2.2500    4.0870 c3        1 MOL     -0.363600
    179 H86         5.2070   -2.2500    4.9580 h1        1 MOL      0.123847
    180 H87         5.9330   -3.2610    3.6860 h1        1 MOL      0.123847
    181 H88         6.8540   -1.9030    4.3790 h1        1 MOL      0.123847
    182 H89         5.4560   -1.5590    2.0750 hn        1 MOL      0.078569
    183 Ca1        -2.0390   -0.2850   -1.1910 Ca        1 MOL      1.781637
    184 O25        -0.9220   -2.2610   -2.7780 oh        1 MOL     -0.832181
    185 H90        -0.4850   -2.2600   -3.6240 ho        1 MOL      0.381133
    186 H91        -1.4280   -3.0750   -2.7670 ho        1 MOL      0.381133
    187 O26        -0.7130    0.4620   -3.4400 oh        1 MOL     -0.832181
    188 H92        -1.3160    1.1610   -3.6710 ho        1 MOL      0.381133
    189 H93         0.0570    0.6100   -3.9810 ho        1 MOL      0.381133
@<TRIPOS>BOND
     1    1    2 1   
     2    1    4 1   
     3    1    5 1   
     4    1    6 1   
     5    2    3 2   
     6    2    7 1   
     7    7    8 1   
     8    7   15 1   
     9    8    9 1   
    10    8   11 1   
    11    8   16 1   
    12    9   10 2   
    13    9   19 1   
    14   11   12 1   
    15   11   17 1   
    16   11   18 1   
    17   12   13 1   
    18   12   14 1   
    19   19   20 1   
    20   19   28 1   
    21   20   21 1   
    22   20   23 1   
    23   20   29 1   
    24   21   22 2   
    25   21   41 1   
    26   23   24 1   
    27   23   30 1   
    28   23   31 1   
    29   24   25 1   
    30   24   32 1   
    31   24   33 1   
    32   25   26 1   
    33   25   34 1   
    34   25   35 1   
    35   26   27 1   
    36   26   36 1   
    37   26   37 1   
    38   27   38 1   
    39   27   39 1   
    40   27   40 1   
    41   41   42 1   
    42   41   49 1   
    43   42   43 1   
    44   42   45 1   
    45   42   50 1   
    46   43   44 2   
    47   43   53 1   
    48   45   46 1   
    49   45   51 1   
    50   45   52 1   
    51   46   47 1   
    52   46   48 1   
    53   53   54 1   
    54   53   57 1   
    55   54   55 1   
    56   54   58 1   
    57   54   59 1   
    58   55   56 2   
    59   55   60 1   
    60   60   61 1   
    61   60   68 1   
    62   61   62 1   
    63   61   64 1   
    64   61   69 1   
    65   62   63 2   
    66   62   72 1   
    67   64   65 1   
    68   64   70 1   
    69   64   71 1   
    70   65   66 1   
    71   65   67 1   
    72   72   73 1   
    73   72   76 1   
    74   73   74 1   
    75   73   77 1   
    76   73   78 1   
    77   74   75 2   
    78   74   79 1   
    79   79   80 1   
    80   79   86 1   
    81   80   81 1   
    82   80   83 1   
    83   80   87 1   
    84   81   82 2   
    85   81   93 1   
    86   83   84 1   
    87   83   85 1   
    88   83   88 1   
    89   84   90 1   
    90   84   91 1   
    91   84   92 1   
    92   85   89 1   
    93   93   94 1   
    94   93  101 1   
    95   94   95 1   
    96   94   97 1   
    97   94  102 1   
    98   95   96 2   
    99   95  112 1   
   100   97   98 1   
   101   97   99 1   
   102   97  103 1   
   103   98  100 1   
   104   98  104 1   
   105   98  105 1   
   106   99  106 1   
   107   99  107 1   
   108   99  108 1   
   109  100  109 1   
   110  100  110 1   
   111  100  111 1   
   112  112  113 1   
   113  112  119 1   
   114  113  114 1   
   115  113  116 1   
   116  113  120 1   
   117  114  115 2   
   118  114  126 1   
   119  116  117 1   
   120  116  118 1   
   121  116  121 1   
   122  117  123 1   
   123  117  124 1   
   124  117  125 1   
   125  118  122 1   
   126  126  127 1   
   127  126  133 1   
   128  127  128 1   
   129  127  130 1   
   130  127  134 1   
   131  128  129 2   
   132  128  140 1   
   133  130  131 1   
   134  130  132 1   
   135  130  135 1   
   136  131  137 1   
   137  131  138 1   
   138  131  139 1   
   139  132  136 1   
   140  140  141 1   
   141  140  149 1   
   142  141  142 1   
   143  141  144 1   
   144  141  150 1   
   145  142  143 2   
   146  142  162 1   
   147  144  145 1   
   148  144  151 1   
   149  144  152 1   
   150  145  146 1   
   151  145  153 1   
   152  145  154 1   
   153  146  147 1   
   154  146  155 1   
   155  146  156 1   
   156  147  148 1   
   157  147  157 1   
   158  147  158 1   
   159  148  159 1   
   160  148  160 1   
   161  148  161 1   
   162  162  163 1   
   163  162  171 1   
   164  163  164 1   
   165  163  166 1   
   166  163  172 1   
   167  164  165 2   
   168  164  177 1   
   169  166  167 1   
   170  166  173 1   
   171  166  174 1   
   172  167  168 1   
   173  167  175 1   
   174  167  176 1   
   175  168  169 1   
   176  168  170 1   
   177  177  178 1   
   178  177  182 1   
   179  178  179 1   
   180  178  180 1   
   181  178  181 1   
   182  184  185 1   
   183  184  186 1   
   184  187  188 1   
   185  187  189 1   
@<TRIPOS>SUBSTRUCTURE
     1 MOL         1 TEMP              0 ****  ****    0 ROOT
