@<TRIPOS>MOLECULE
MOL
  176   174     1     0     0
SMALL
resp


@<TRIPOS>ATOM
      1 C1          1.5480    3.3530    6.2150 c3        1 MOL     -0.277659
      2 C2          1.2850    2.8190    4.8790 c         1 MOL      0.796565
      3 O1          2.2600    2.4540    4.1860 o         1 MOL     -0.608510
      4 H1          2.5340    3.8190    6.2320 hc        1 MOL      0.066093
      5 H2          0.7910    4.0960    6.4660 hc        1 MOL      0.066093
      6 H3          1.5180    2.5420    6.9430 hc        1 MOL      0.066093
      7 N1          0.0530    2.8080    4.3960 n         1 MOL     -0.640942
      8 C3         -0.3630    2.6030    2.9720 c3        1 MOL     -0.002022
      9 C4         -0.3790    3.8560    2.1670 c         1 MOL      0.780868
     10 O2         -0.9480    4.8980    2.5070 o         1 MOL     -0.584192
     11 C5         -1.7810    1.9140    3.1040 c3        1 MOL     -0.443063
     12 C6         -2.2020    1.3150    1.7780 c         1 MOL      1.118665
     13 O3         -2.4430    0.1100    1.6240 o         1 MOL     -0.925537
     14 O4         -2.1990    2.0920    0.8050 o         1 MOL     -0.925537
     15 H4         -0.7250    2.9750    5.0150 hn        1 MOL      0.341481
     16 H5          0.3090    1.9260    2.4590 h1        1 MOL     -0.016501
     17 H6         -2.4810    2.6860    3.4300 hc        1 MOL      0.116244
     18 H7         -1.7650    1.0670    3.7810 hc        1 MOL      0.116244
     19 N2          0.2300    3.7860    0.9840 n         1 MOL     -0.491545
     20 C7          0.4310    4.9470    0.0400 c3        1 MOL     -0.309025
     21 C8         -0.8720    5.4760   -0.6010 c         1 MOL      0.663415
     22 O5         -0.9620    6.5760   -1.0620 o         1 MOL     -0.577352
     23 C9          1.4370    4.6070   -1.0790 c3        1 MOL      0.440488
     24 C10         2.1070    5.8570   -1.6050 c3        1 MOL     -0.382441
     25 C11         3.2400    5.3020   -2.5590 c3        1 MOL      0.070215
     26 C12         2.6220    4.8470   -3.9020 c3        1 MOL      0.028324
     27 N3          3.5380    4.1580   -4.6960 n4        1 MOL     -0.286349
     28 H8          0.5230    2.8870    0.6190 hn        1 MOL      0.332799
     29 H9          0.9440    5.7310    0.6010 h1        1 MOL      0.146755
     30 H10         0.9520    4.0560   -1.8860 hc        1 MOL     -0.033446
     31 H11         2.1980    3.9330   -0.6930 hc        1 MOL     -0.033446
     32 H12         2.4800    6.3440   -0.7000 hc        1 MOL      0.116117
     33 H13         1.4870    6.4820   -2.2450 hc        1 MOL      0.116117
     34 H14         3.8790    4.5640   -2.0770 hc        1 MOL      0.014848
     35 H15         3.9940    6.0250   -2.8300 hc        1 MOL      0.014848
     36 H16         2.2180    5.6970   -4.4540 hx        1 MOL      0.065988
     37 H17         1.7770    4.2140   -3.6360 hx        1 MOL      0.065988
     38 H18         4.2820    3.7980   -4.1150 hn        1 MOL      0.308821
     39 H19         3.1280    3.4880   -5.3350 hn        1 MOL      0.308821
     40 H20         4.1270    4.7280   -5.2720 hn        1 MOL      0.308821
     41 N4         -1.8750    4.5760   -0.6770 n         1 MOL     -0.399095
     42 C13        -3.0870    4.8140   -1.4870 c3        1 MOL      0.040207
     43 C14        -4.4490    4.4590   -0.7670 c         1 MOL      0.416781
     44 O6         -5.4360    5.0790   -0.9320 o         1 MOL     -0.537682
     45 C15        -3.0300    3.9760   -2.7140 c3        1 MOL     -0.167147
     46 C16        -2.6580    2.5050   -2.4140 c         1 MOL      0.659987
     47 O7         -3.5740    1.6710   -2.2030 o         1 MOL     -0.711742
     48 O8         -1.4170    2.1890   -2.3720 o         1 MOL     -0.711742
     49 H21        -1.7920    3.8130   -0.0270 hn        1 MOL      0.256282
     50 H22        -3.2110    5.8550   -1.7720 h1        1 MOL      0.097008
     51 H23        -2.3460    4.4420   -3.4200 hc        1 MOL      0.044929
     52 H24        -3.9290    4.0270   -3.3330 hc        1 MOL      0.044929
     53 N5         -4.3080    3.5450    0.1710 n         1 MOL     -0.076289
     54 C17        -5.3930    3.0910    1.0650 c3        1 MOL     -0.236935
     55 C18        -6.3020    1.9490    0.6620 c         1 MOL      0.653865
     56 O9         -7.4060    1.8500    1.1460 o         1 MOL     -0.601265
     57 H25        -3.4470    3.0190    0.1820 hn        1 MOL      0.140076
     58 H26        -5.9520    4.0160    1.1880 h1        1 MOL      0.103448
     59 H27        -4.9060    2.9160    2.0190 h1        1 MOL      0.103448
     60 N6         -5.9600    1.1910   -0.3740 n         1 MOL     -0.287247
     61 C19        -6.8000    0.0120   -0.8060 c3        1 MOL     -0.013961
     62 C20        -6.9540   -1.2730    0.1210 c         1 MOL      0.445513
     63 O10        -7.5680   -2.2410   -0.3870 o         1 MOL     -0.495836
     64 C21        -6.3640   -0.4120   -2.1810 c3        1 MOL     -0.553652
     65 C22        -5.0670   -1.1990   -2.2870 c         1 MOL      0.750659
     66 N7         -5.0020   -2.0170   -3.2760 n         1 MOL     -0.491431
     67 O11        -4.1030   -1.1160   -1.5380 o         1 MOL     -0.675801
     68 H28        -5.1690    1.3460   -0.9790 hn        1 MOL      0.207529
     69 H29        -7.8090    0.3970   -0.9320 h1        1 MOL      0.140640
     70 H30        -6.3510    0.4830   -2.8120 hc        1 MOL      0.180843
     71 H31        -7.1870   -1.0430   -2.5140 hc        1 MOL      0.180843
     72 H32        -5.7550   -2.0110   -3.9400 hn        1 MOL      0.260024
     73 H33        -4.1230   -2.4800   -3.4650 hn        1 MOL      0.260024
     74 N8         -6.3010   -1.1640    1.2950 n         1 MOL     -0.319499
     75 C23        -6.3700   -2.1360    2.4780 c3        1 MOL     -0.070632
     76 C24        -5.1150   -3.1210    2.6230 c         1 MOL      0.434926
     77 O12        -5.0260   -3.9780    3.5290 o         1 MOL     -0.545478
     78 H34        -5.7190   -0.3560    1.5010 hn        1 MOL      0.252310
     79 H35        -7.1960   -2.8310    2.3190 h1        1 MOL      0.102302
     80 H36        -6.4960   -1.6940    3.4690 h1        1 MOL      0.102302
     81 N9         -4.1750   -2.9890    1.7070 n         1 MOL     -0.242959
     82 C25        -2.9680   -3.8030    1.6660 c3        1 MOL      0.145961
     83 C26        -1.7130   -3.1000    1.2890 c         1 MOL      0.593423
     84 O13        -1.7140   -2.3020    0.3220 o         1 MOL     -0.687423
     85 C27        -3.2390   -5.0500    0.8820 c3        1 MOL     -0.307091
     86 C28        -3.3900   -4.9550   -0.6120 ca        1 MOL      0.121080
     87 C29        -2.2670   -4.8050   -1.4180 ca        1 MOL     -0.092520
     88 C30        -4.6340   -5.1390   -1.2710 ca        1 MOL     -0.092520
     89 C31        -2.3110   -4.7500   -2.7930 ca        1 MOL     -0.344074
     90 C32        -4.7190   -4.9750   -2.6560 ca        1 MOL     -0.344074
     91 C33        -3.5830   -4.8110   -3.4890 ca        1 MOL      0.368516
     92 O14        -3.6660   -4.6860   -4.8000 oh        1 MOL     -0.487907
     93 H37        -4.5390   -2.5540    0.8820 hn        1 MOL      0.253131
     94 H38        -2.7370   -4.0200    2.7120 h1        1 MOL      0.044962
     95 H39        -4.1480   -5.4360    1.3600 hc        1 MOL      0.096385
     96 H40        -2.5030   -5.8430    1.0740 hc        1 MOL      0.096385
     97 H41        -1.3190   -4.6510   -0.9190 ha        1 MOL      0.138455
     98 H42        -5.5160   -5.2960   -0.6740 ha        1 MOL      0.138455
     99 H43        -1.4550   -4.5110   -3.4110 ha        1 MOL      0.153722
    100 H44        -5.6890   -5.0320   -3.1480 ha        1 MOL      0.153722
    101 H45        -2.8310   -4.6420   -5.2870 ho        1 MOL      0.367636
    102 N10        -0.6210   -3.2910    1.9970 n         1 MOL     -0.337412
    103 C34         0.6800   -2.6380    1.7960 c3        1 MOL     -0.254381
    104 C35         1.6380   -3.5400    1.0670 c         1 MOL      0.411793
    105 O15         1.5130   -4.8000    1.1580 o         1 MOL     -0.560243
    106 C36         1.3280   -1.9420    3.0510 c3        1 MOL      0.008127
    107 C37         1.8090   -3.0550    4.0340 c3        1 MOL     -0.188001
    108 C38         0.3070   -0.9830    3.6370 c3        1 MOL     -0.152588
    109 C39         2.4570   -2.5790    5.3030 c3        1 MOL     -0.186125
    110 H46        -0.6770   -4.0080    2.7080 hn        1 MOL      0.273690
    111 H47         0.4850   -1.7250    1.2360 h1        1 MOL      0.345878
    112 H48         2.2540   -1.5060    2.6750 hc        1 MOL      0.071369
    113 H49         2.6580   -3.5290    3.5450 hc        1 MOL      0.095888
    114 H50         1.0110   -3.7700    4.2540 hc        1 MOL      0.095888
    115 H51         0.6000   -0.6550    4.6340 hc        1 MOL      0.074258
    116 H52         0.5260   -0.1170    3.0090 hc        1 MOL      0.074258
    117 H53        -0.7460   -1.2400    3.5680 hc        1 MOL      0.074258
    118 H54         3.1130   -1.7770    4.9620 hc        1 MOL      0.055971
    119 H55         1.7040   -2.1990    5.9990 hc        1 MOL      0.055971
    120 H56         3.0470   -3.3970    5.7060 hc        1 MOL      0.055971
    121 N11         2.4890   -2.9550    0.2640 n         1 MOL     -0.087099
    122 C40         3.5670   -3.6080   -0.5520 c3        1 MOL      0.105331
    123 C41         4.9920   -3.1070   -0.1890 c         1 MOL      0.439662
    124 O16         5.2400   -2.3040    0.7130 o         1 MOL     -0.420200
    125 C42         3.3450   -3.2340   -2.0400 c3        1 MOL     -0.198158
    126 O17         3.9390   -1.9890   -2.3570 oh        1 MOL     -0.393068
    127 H57         2.3130   -1.9880    0.0290 hn        1 MOL      0.062663
    128 H58         3.5850   -4.6890   -0.4500 h1        1 MOL      0.074237
    129 H59         2.2870   -3.3440   -2.2880 h1        1 MOL      0.104656
    130 H60         3.9700   -3.9590   -2.5460 h1        1 MOL      0.104656
    131 H61         3.9500   -1.8930   -3.3060 ho        1 MOL      0.362522
    132 N12         6.0910   -3.6700   -0.8250 n         1 MOL     -0.493274
    133 C43         7.5040   -3.4540   -0.4540 c3        1 MOL      0.186403
    134 C44         7.8980   -2.0170   -0.7970 c         1 MOL      0.360714
    135 O18         8.4150   -1.2340    0.0370 o         1 MOL     -0.480739
    136 C45         8.3100   -4.5260   -1.1460 c3        1 MOL     -0.480053
    137 H62         5.8940   -4.2070   -1.6540 hn        1 MOL      0.289871
    138 H63         7.6450   -3.6290    0.6110 h1        1 MOL      0.125239
    139 H64         8.2250   -5.4840   -0.6490 hc        1 MOL      0.142782
    140 H65         8.1010   -4.5720   -2.2160 hc        1 MOL      0.142782
    141 H66         9.3740   -4.3100   -1.0590 hc        1 MOL      0.142782
    142 N13         7.4830   -1.4320   -1.9520 n         1 MOL     -0.317010
    143 C46         7.4980    0.0110   -2.2910 c3        1 MOL      0.164900
    144 C47         6.7220    0.8700   -1.3420 c         1 MOL      0.339598
    145 O19         7.2080    2.0060   -1.0850 o         1 MOL     -0.528014
    146 C48         7.0350    0.1470   -3.7710 c3        1 MOL     -0.319446
    147 H67         7.0130   -1.9770   -2.6710 hn        1 MOL      0.203642
    148 H68         8.4980    0.4450   -2.2660 h1        1 MOL      0.088754
    149 H69         5.9480    0.0800   -3.8160 hc        1 MOL      0.080306
    150 H70         7.2530    1.0970   -4.2660 hc        1 MOL      0.080306
    151 H71         7.6220   -0.6170   -4.2750 hc        1 MOL      0.080306
    152 N14         5.5500    0.5020   -0.8250 n         1 MOL     -0.028235
    153 C49         4.8050    1.2680    0.1750 c3        1 MOL     -0.333139
    154 C50         5.5550    1.2870    1.4920 c         1 MOL      0.594141
    155 O20         5.5550    2.3370    2.1400 o         1 MOL     -0.546908
    156 C51         3.4400    0.6520    0.3650 c3        1 MOL      0.191174
    157 C52         2.5980    0.7400   -0.9000 c3        1 MOL      0.201337
    158 C53         1.2250    0.2090   -0.5350 c         1 MOL      0.417531
    159 O21         0.7450   -0.8430   -1.0020 o         1 MOL     -0.619594
    160 O22         0.5050    0.8470    0.2800 o         1 MOL     -0.619594
    161 H72         5.0930   -0.3030   -1.2240 hn        1 MOL      0.109084
    162 H73         4.6780    2.3060   -0.1540 h1        1 MOL      0.126686
    163 H74         3.0500    1.3000    1.1580 hc        1 MOL     -0.000980
    164 H75         3.4890   -0.3880    0.6730 hc        1 MOL     -0.000980
    165 H76         3.1100    0.1550   -1.6670 hc        1 MOL     -0.134785
    166 H77         2.5360    1.8030   -1.1470 hc        1 MOL     -0.134785
    167 N15         6.2650    0.2150    1.8310 n         1 MOL     -0.114252
    168 C54         7.1040    0.1080    3.0100 c3        1 MOL     -0.482974
    169 H78         7.9880    0.7330    2.8830 h1        1 MOL      0.166932
    170 H79         6.5470    0.4410    3.8850 h1        1 MOL      0.166932
    171 H80         7.4100   -0.9290    3.1460 h1        1 MOL      0.166932
    172 H81         6.3000   -0.5340    1.1510 hn        1 MOL      0.162498
    173 Ca1        -1.7210   -0.0490   -0.8660 Ca        1 MOL      1.794700
    174 O23        -1.5770   -0.7830   -3.3160 oh        1 MOL     -0.902734
    175 H82        -1.0820   -1.4220   -3.8340 ho        1 MOL      0.425770
    176 H83        -2.1850   -0.3910   -3.9390 ho        1 MOL      0.425770
@<TRIPOS>BOND
     1    1    2 1   
     2    1    4 1   
     3    1    5 1   
     4    1    6 1   
     5    2    3 2   
     6    2    7 1   
     7    7    8 1   
     8    7   15 1   
     9    8    9 1   
    10    8   11 1   
    11    8   16 1   
    12    9   10 2   
    13    9   19 1   
    14   11   12 1   
    15   11   17 1   
    16   11   18 1   
    17   12   13 1   
    18   12   14 1   
    19   19   20 1   
    20   19   28 1   
    21   20   21 1   
    22   20   23 1   
    23   20   29 1   
    24   21   22 2   
    25   21   41 1   
    26   23   24 1   
    27   23   30 1   
    28   23   31 1   
    29   24   25 1   
    30   24   32 1   
    31   24   33 1   
    32   25   26 1   
    33   25   34 1   
    34   25   35 1   
    35   26   27 1   
    36   26   36 1   
    37   26   37 1   
    38   27   38 1   
    39   27   39 1   
    40   27   40 1   
    41   41   42 1   
    42   41   49 1   
    43   42   43 1   
    44   42   45 1   
    45   42   50 1   
    46   43   44 2   
    47   43   53 1   
    48   45   46 1   
    49   45   51 1   
    50   45   52 1   
    51   46   47 1   
    52   46   48 1   
    53   53   54 1   
    54   53   57 1   
    55   54   55 1   
    56   54   58 1   
    57   54   59 1   
    58   55   56 2   
    59   55   60 1   
    60   60   61 1   
    61   60   68 1   
    62   61   62 1   
    63   61   64 1   
    64   61   69 1   
    65   62   63 2   
    66   62   74 1   
    67   64   65 1   
    68   64   70 1   
    69   64   71 1   
    70   65   66 1   
    71   65   67 2   
    72   66   72 1   
    73   66   73 1   
    74   74   75 1   
    75   74   78 1   
    76   75   76 1   
    77   75   79 1   
    78   75   80 1   
    79   76   77 2   
    80   76   81 1   
    81   81   82 1   
    82   81   93 1   
    83   82   83 1   
    84   82   85 1   
    85   82   94 1   
    86   83   84 2   
    87   83  102 1   
    88   85   86 1   
    89   85   95 1   
    90   85   96 1   
    91   86   87 ar  
    92   86   88 ar  
    93   87   89 ar  
    94   87   97 1   
    95   88   90 ar  
    96   88   98 1   
    97   89   91 ar  
    98   89   99 1   
    99   90   91 ar  
   100   90  100 1   
   101   91   92 1   
   102   92  101 1   
   103  102  103 1   
   104  102  110 1   
   105  103  104 1   
   106  103  106 1   
   107  103  111 1   
   108  104  105 2   
   109  104  121 1   
   110  106  107 1   
   111  106  108 1   
   112  106  112 1   
   113  107  109 1   
   114  107  113 1   
   115  107  114 1   
   116  108  115 1   
   117  108  116 1   
   118  108  117 1   
   119  109  118 1   
   120  109  119 1   
   121  109  120 1   
   122  121  122 1   
   123  121  127 1   
   124  122  123 1   
   125  122  125 1   
   126  122  128 1   
   127  123  124 2   
   128  123  132 1   
   129  125  126 1   
   130  125  129 1   
   131  125  130 1   
   132  126  131 1   
   133  132  133 1   
   134  132  137 1   
   135  133  134 1   
   136  133  136 1   
   137  133  138 1   
   138  134  135 2   
   139  134  142 1   
   140  136  139 1   
   141  136  140 1   
   142  136  141 1   
   143  142  143 1   
   144  142  147 1   
   145  143  144 1   
   146  143  146 1   
   147  143  148 1   
   148  144  145 2   
   149  144  152 1   
   150  146  149 1   
   151  146  150 1   
   152  146  151 1   
   153  152  153 1   
   154  152  161 1   
   155  153  154 1   
   156  153  156 1   
   157  153  162 1   
   158  154  155 2   
   159  154  167 1   
   160  156  157 1   
   161  156  163 1   
   162  156  164 1   
   163  157  158 1   
   164  157  165 1   
   165  157  166 1   
   166  158  159 1   
   167  158  160 1   
   168  167  168 1   
   169  167  172 1   
   170  168  169 1   
   171  168  170 1   
   172  168  171 1   
   173  174  175 1   
   174  174  176 1   
@<TRIPOS>SUBSTRUCTURE
     1 MOL         1 TEMP              0 ****  ****    0 ROOT
