@<TRIPOS>MOLECULE
MOL
  189   185     1     0     0
SMALL
resp


@<TRIPOS>ATOM
      1 C1         -0.2420    2.8980   -4.7220 c3        1 MOL     -0.167920
      2 C2          0.4460    2.7150   -3.3510 c         1 MOL      0.598683
      3 O1         -0.1660    3.0350   -2.2860 o         1 MOL     -0.616416
      4 H1         -0.0520    3.9050   -5.0910 hc        1 MOL      0.048669
      5 H2          0.1570    2.1710   -5.4280 hc        1 MOL      0.048669
      6 H3         -1.3160    2.7480   -4.6130 hc        1 MOL      0.048669
      7 N1          1.6260    2.1050   -3.2950 n         1 MOL     -0.626961
      8 C3          2.3330    1.6860   -2.1140 c3        1 MOL      0.537676
      9 C4          3.0940    2.8570   -1.4880 c         1 MOL      0.197029
     10 O2          4.3410    2.8820   -1.6440 o         1 MOL     -0.468832
     11 C5          3.1090    0.4830   -2.5620 c3        1 MOL     -0.161749
     12 C6          3.8660   -0.2530   -1.4120 c         1 MOL      0.557583
     13 O3          4.8230   -1.0020   -1.6830 o         1 MOL     -0.568141
     14 O4          3.4150   -0.1030   -0.2650 o         1 MOL     -0.568141
     15 H4          2.1490    1.8990   -4.1440 hn        1 MOL      0.307259
     16 H5          1.6600    1.2370   -1.3870 h1        1 MOL     -0.021242
     17 H6          3.8580    0.8390   -3.2640 hc        1 MOL      0.000958
     18 H7          2.3690   -0.2060   -2.9740 hc        1 MOL      0.000958
     19 N2          2.3920    3.7710   -0.9140 n         1 MOL     -0.172286
     20 C7          2.9310    5.0850   -0.4190 c3        1 MOL     -0.056293
     21 C8          3.6930    4.9600    0.9260 c         1 MOL      0.497863
     22 O5          4.2980    5.9180    1.3470 o         1 MOL     -0.570668
     23 C9          1.8670    6.2080   -0.3350 c3        1 MOL     -0.063376
     24 C10         1.1130    6.5340   -1.6570 c3        1 MOL      0.100093
     25 C11         2.1010    7.0140   -2.6820 c3        1 MOL     -0.331453
     26 C12         1.2110    7.5070   -3.8630 c3        1 MOL      0.119886
     27 N3          1.2670    8.9360   -3.9680 n4        1 MOL     -0.477249
     28 H8          1.4060    3.5400   -0.8710 hn        1 MOL      0.255680
     29 H9          3.6250    5.4840   -1.1690 h1        1 MOL      0.084242
     30 H10         2.3440    7.1600   -0.1160 hc        1 MOL      0.024817
     31 H11         1.1330    5.9730    0.4390 hc        1 MOL      0.024817
     32 H12         0.3010    7.2110   -1.3790 hc        1 MOL      0.020432
     33 H13         0.6050    5.6680   -2.0750 hc        1 MOL      0.020432
     34 H14         2.7680    6.2500   -3.0980 hc        1 MOL      0.131619
     35 H15         2.7200    7.8770   -2.4230 hc        1 MOL      0.131619
     36 H16         0.1920    7.1100   -3.8010 hx        1 MOL      0.075568
     37 H17         1.5600    7.0140   -4.7720 hx        1 MOL      0.075568
     38 H18         0.8040    9.2380   -4.8140 hn        1 MOL      0.356942
     39 H19         0.8350    9.3290   -3.1490 hn        1 MOL      0.356942
     40 H20         2.2160    9.3040   -3.9710 hn        1 MOL      0.356942
     41 N4          3.8120    3.7990    1.5340 n         1 MOL     -0.249572
     42 C13         4.7940    3.5820    2.6220 c3        1 MOL      0.093332
     43 C14         5.9370    2.6760    2.2270 c         1 MOL      0.333516
     44 O6          6.9020    2.5840    3.0010 o         1 MOL     -0.526321
     45 C15         4.1430    3.0080    3.8500 c3        1 MOL     -0.351144
     46 C16         3.0660    1.9300    3.6120 c         1 MOL      0.861872
     47 O7          2.9800    1.3730    2.5360 o         1 MOL     -0.734506
     48 O8          2.4390    1.6310    4.6180 o         1 MOL     -0.734506
     49 H21         3.3020    3.0110    1.1440 hn        1 MOL      0.157029
     50 H22         5.3180    4.5220    2.7950 h1        1 MOL      0.099994
     51 H23         3.6770    3.8750    4.3200 hc        1 MOL      0.089208
     52 H24         4.8270    2.5870    4.5790 hc        1 MOL      0.089208
     53 N5          5.9190    2.1230    1.0430 n         1 MOL      0.098578
     54 C17         6.9740    1.4870    0.3170 c3        1 MOL     -0.110142
     55 C18         7.4120    0.1480    0.9830 c         1 MOL      0.451638
     56 O9          8.5600   -0.0120    1.3820 o         1 MOL     -0.537308
     57 H25         5.1050    2.3000    0.4710 hn        1 MOL     -0.035897
     58 H26         7.8410    2.1420    0.2620 h1        1 MOL      0.063305
     59 H27         6.6430    1.3600   -0.7190 h1        1 MOL      0.063305
     60 N6          6.4780   -0.8500    1.1680 n         1 MOL     -0.122799
     61 C19         6.7910   -2.2460    1.5650 c3        1 MOL      0.005337
     62 C20         6.6550   -3.4400    0.5490 c         1 MOL      0.347001
     63 O10         7.0210   -4.5600    0.8960 o         1 MOL     -0.517227
     64 C21         5.9150   -2.4290    2.7530 c3        1 MOL     -0.223616
     65 C22         4.3730   -2.2100    2.4530 c         1 MOL      0.639873
     66 O11         3.8910   -2.4600    1.3230 o         1 MOL     -0.670448
     67 O12         3.6950   -1.6280    3.3390 o         1 MOL     -0.670448
     68 H28         5.5810   -0.6180    0.7510 hn        1 MOL      0.065302
     69 H29         7.8530   -2.3470    1.7820 h1        1 MOL      0.116376
     70 H30         6.3250   -1.8440    3.5730 hc        1 MOL      0.071314
     71 H31         5.9380   -3.4770    3.0800 hc        1 MOL      0.071314
     72 N7          6.3180   -3.1440   -0.6950 n         1 MOL     -0.166903
     73 C23         6.2440   -4.1490   -1.8060 c3        1 MOL     -0.182512
     74 C24         4.8110   -4.6930   -1.9760 c         1 MOL      0.554035
     75 O13         4.5410   -5.6010   -2.7720 o         1 MOL     -0.579023
     76 H32         5.9380   -2.2150   -0.8410 hn        1 MOL      0.132783
     77 H33         6.8230   -5.0300   -1.5010 h1        1 MOL      0.114203
     78 H34         6.6460   -3.7040   -2.7110 h1        1 MOL      0.114203
     79 N8          3.7910   -4.1340   -1.2660 n         1 MOL     -0.317346
     80 C25         2.4620   -4.7120   -1.1130 c3        1 MOL     -0.199565
     81 C26         1.3270   -3.6110   -1.1340 c         1 MOL      0.685707
     82 O14         1.5170   -2.4780   -0.6260 o         1 MOL     -0.644376
     83 C27         2.3870   -5.5780    0.1420 c3        1 MOL      0.658515
     84 C28         2.7100   -7.0670   -0.0340 c3        1 MOL     -0.530814
     85 O15         3.2420   -5.2300    1.1580 oh        1 MOL     -0.694387
     86 H35         3.9980   -3.2570   -0.8140 hn        1 MOL      0.253737
     87 H36         2.1090   -5.3590   -1.9090 h1        1 MOL      0.086857
     88 H37         1.3340   -5.6200    0.4300 h1        1 MOL     -0.082394
     89 H38         3.5890   -4.3370    1.0580 ho        1 MOL      0.488659
     90 H39         2.0600   -7.5550   -0.7680 hc        1 MOL      0.118336
     91 H40         3.7240   -7.2630   -0.3880 hc        1 MOL      0.118336
     92 H41         2.5930   -7.5520    0.9340 hc        1 MOL      0.118336
     93 N9          0.2060   -3.8820   -1.6940 n         1 MOL     -0.665687
     94 C29        -0.8850   -2.9620   -1.9010 c3        1 MOL      0.167086
     95 C30        -2.1970   -3.5580   -1.2480 c         1 MOL      0.397531
     96 O16        -2.6410   -4.6770   -1.6280 o         1 MOL     -0.549187
     97 C31        -1.0650   -2.6950   -3.3670 c3        1 MOL      0.244335
     98 C32         0.2260   -2.0020   -4.0240 c3        1 MOL      0.074152
     99 C33        -2.3520   -1.9350   -3.5810 c3        1 MOL     -0.277313
    100 C34         0.1520   -2.0370   -5.5910 c3        1 MOL     -0.374368
    101 H42         0.1410   -4.7500   -2.2240 hn        1 MOL      0.312447
    102 H43        -0.7650   -2.0080   -1.3830 h1        1 MOL      0.005060
    103 H44        -1.1780   -3.6960   -3.7930 hc        1 MOL     -0.028981
    104 H45         1.1270   -2.5940   -3.8550 hc        1 MOL      0.038171
    105 H46         0.2860   -0.9850   -3.6310 hc        1 MOL      0.038171
    106 H47        -2.4380   -1.5320   -4.5910 hc        1 MOL      0.040064
    107 H48        -3.2530   -2.5290   -3.4270 hc        1 MOL      0.040064
    108 H49        -2.3690   -1.1200   -2.8590 hc        1 MOL      0.040064
    109 H50        -0.8230   -1.7210   -5.9560 hc        1 MOL      0.088978
    110 H51         1.0450   -1.4960   -5.9280 hc        1 MOL      0.088978
    111 H52         0.2070   -3.0970   -5.8350 hc        1 MOL      0.088978
    112 N10        -2.8430   -2.7410   -0.4340 n         1 MOL     -0.169507
    113 C35        -4.1360   -3.0420    0.2680 c3        1 MOL     -0.014335
    114 C36        -5.3450   -2.3860   -0.3330 c         1 MOL      0.402391
    115 O17        -5.2000   -1.5670   -1.2080 o         1 MOL     -0.415658
    116 C37        -3.9720   -2.3520    1.6350 c3        1 MOL      0.173008
    117 C38        -2.7980   -2.9070    2.5570 c3        1 MOL     -0.457342
    118 O18        -3.7340   -0.9270    1.4770 oh        1 MOL     -0.561930
    119 H53        -2.3880   -1.8720   -0.2010 hn        1 MOL      0.320673
    120 H54        -4.2470   -4.1140    0.3400 h1        1 MOL      0.079249
    121 H55        -4.8750   -2.5980    2.1930 h1        1 MOL      0.034701
    122 H56        -2.9020   -0.6450    1.8550 ho        1 MOL      0.408046
    123 H57        -1.8670   -2.8830    1.9790 hc        1 MOL      0.132717
    124 H58        -2.6140   -2.2840    3.4290 hc        1 MOL      0.132717
    125 H59        -2.9930   -3.9490    2.8230 hc        1 MOL      0.132717
    126 N11        -6.5430   -2.7610    0.0950 n         1 MOL     -0.259756
    127 C39        -7.8030   -2.1960   -0.5010 c3        1 MOL     -0.151835
    128 C40        -7.9410   -0.7000   -0.1240 c         1 MOL      0.539340
    129 O19        -8.6080    0.0020   -0.8210 o         1 MOL     -0.505133
    130 C41        -9.0450   -2.9130    0.0420 c3        1 MOL      0.232697
    131 C42        -9.3590   -4.0620   -0.8560 c3        1 MOL     -0.331545
    132 O20        -9.0040   -3.3610    1.4040 oh        1 MOL     -0.618793
    133 H60        -6.6630   -3.4390    0.8390 hn        1 MOL      0.243281
    134 H61        -7.7830   -2.2570   -1.5920 h1        1 MOL      0.155932
    135 H62        -9.8700   -2.2030   -0.0620 h1        1 MOL      0.070350
    136 H63        -9.4640   -4.2070    1.4280 ho        1 MOL      0.418369
    137 H64        -9.3500   -3.9470   -1.9420 hc        1 MOL      0.095408
    138 H65        -8.6450   -4.8580   -0.6520 hc        1 MOL      0.095408
    139 H66       -10.3580   -4.4470   -0.6180 hc        1 MOL      0.095408
    140 N12        -7.2520   -0.1850    0.9820 n         1 MOL     -0.345214
    141 C43        -7.2300    1.3020    1.2120 c3        1 MOL     -0.233251
    142 C44        -6.2150    1.9950    0.2990 c         1 MOL      0.427130
    143 O21        -6.4230    3.1250   -0.1700 o         1 MOL     -0.532564
    144 C45        -6.8390    1.4560    2.6420 c3        1 MOL      0.128691
    145 C46        -6.8390    2.8930    3.1500 c3        1 MOL     -0.042399
    146 C47        -6.1200    3.0060    4.5620 c3        1 MOL     -0.034628
    147 C48        -6.9360    2.4900    5.7090 c3        1 MOL     -0.083227
    148 N13        -8.2130    3.2390    5.8020 n4        1 MOL     -0.370314
    149 H67        -6.7100   -0.8270    1.5410 hn        1 MOL      0.215482
    150 H68        -8.2420    1.6680    1.0380 h1        1 MOL      0.163307
    151 H69        -5.7890    1.1820    2.7190 hc        1 MOL      0.001552
    152 H70        -7.4180    0.8020    3.2930 hc        1 MOL      0.001552
    153 H71        -7.8940    3.1690    3.2180 hc        1 MOL      0.017565
    154 H72        -6.3770    3.5790    2.4410 hc        1 MOL      0.017565
    155 H73        -5.9780    4.0790    4.7490 hc        1 MOL      0.061685
    156 H74        -5.1010    2.6260    4.5260 hc        1 MOL      0.061685
    157 H75        -6.3450    2.6320    6.6160 hx        1 MOL      0.123522
    158 H76        -6.9870    1.4160    5.5500 hx        1 MOL      0.123522
    159 H77        -8.0540    4.2410    5.8900 hn        1 MOL      0.325737
    160 H78        -8.7570    3.1040    4.9610 hn        1 MOL      0.325737
    161 H79        -8.7020    3.0280    6.6590 hn        1 MOL      0.325737
    162 N14        -5.1120    1.3520   -0.0680 n         1 MOL      0.086358
    163 C49        -4.1370    1.8940   -0.9740 c3        1 MOL     -0.447862
    164 C50        -4.6650    1.8670   -2.3640 c         1 MOL      0.587264
    165 O22        -4.3570    2.7610   -3.1110 o         1 MOL     -0.581611
    166 C51        -2.7820    1.2190   -0.9030 c3        1 MOL      0.289398
    167 C52        -2.0830    1.4600    0.4400 c3        1 MOL     -0.235806
    168 C53        -0.7920    0.6560    0.6310 c         1 MOL      0.734550
    169 O23        -0.8360   -0.5870    0.8070 o         1 MOL     -0.760106
    170 O24         0.2760    1.1630    0.9340 o         1 MOL     -0.760106
    171 H80        -4.9240    0.4600    0.3670 hn        1 MOL      0.030597
    172 H81        -4.0990    2.9700   -0.8210 h1        1 MOL      0.170419
    173 H82        -2.1620    1.5400   -1.7390 hc        1 MOL     -0.018633
    174 H83        -2.8780    0.1420   -1.0550 hc        1 MOL     -0.018633
    175 H84        -2.6410    1.2950    1.3630 hc        1 MOL      0.060607
    176 H85        -1.8680    2.5370    0.4470 hc        1 MOL      0.060607
    177 N15        -5.5290    0.9440   -2.7330 n         1 MOL     -0.126402
    178 C54        -6.2810    0.9940   -3.9690 c3        1 MOL     -0.281357
    179 H86        -6.0850    1.9400   -4.4750 h1        1 MOL      0.107725
    180 H87        -5.9770    0.1690   -4.6140 h1        1 MOL      0.107725
    181 H88        -7.3460    0.9130   -3.7510 h1        1 MOL      0.107725
    182 H89        -5.7210    0.2040   -2.0720 hn        1 MOL      0.164225
    183 Ca1         1.8430   -0.9050    1.5890 Ca        1 MOL      1.763208
    184 O25         0.6530   -0.3350    4.0090 oh        1 MOL     -0.897058
    185 H90        -0.1260   -0.1120    4.5250 ho        1 MOL      0.410347
    186 H91         1.2740    0.3540    4.2210 ho        1 MOL      0.410347
    187 O26         0.8240   -3.3420    2.4400 oh        1 MOL     -0.897058
    188 H92        -0.0160   -3.2010    2.8900 ho        1 MOL      0.410347
    189 H93         1.2460   -4.0300    2.9470 ho        1 MOL      0.410347
@<TRIPOS>BOND
     1    1    2 1   
     2    1    4 1   
     3    1    5 1   
     4    1    6 1   
     5    2    3 2   
     6    2    7 1   
     7    7    8 1   
     8    7   15 1   
     9    8    9 1   
    10    8   11 1   
    11    8   16 1   
    12    9   10 2   
    13    9   19 1   
    14   11   12 1   
    15   11   17 1   
    16   11   18 1   
    17   12   13 1   
    18   12   14 1   
    19   19   20 1   
    20   19   28 1   
    21   20   21 1   
    22   20   23 1   
    23   20   29 1   
    24   21   22 2   
    25   21   41 1   
    26   23   24 1   
    27   23   30 1   
    28   23   31 1   
    29   24   25 1   
    30   24   32 1   
    31   24   33 1   
    32   25   26 1   
    33   25   34 1   
    34   25   35 1   
    35   26   27 1   
    36   26   36 1   
    37   26   37 1   
    38   27   38 1   
    39   27   39 1   
    40   27   40 1   
    41   41   42 1   
    42   41   49 1   
    43   42   43 1   
    44   42   45 1   
    45   42   50 1   
    46   43   44 2   
    47   43   53 1   
    48   45   46 1   
    49   45   51 1   
    50   45   52 1   
    51   46   47 1   
    52   46   48 1   
    53   53   54 1   
    54   53   57 1   
    55   54   55 1   
    56   54   58 1   
    57   54   59 1   
    58   55   56 2   
    59   55   60 1   
    60   60   61 1   
    61   60   68 1   
    62   61   62 1   
    63   61   64 1   
    64   61   69 1   
    65   62   63 2   
    66   62   72 1   
    67   64   65 1   
    68   64   70 1   
    69   64   71 1   
    70   65   66 1   
    71   65   67 1   
    72   72   73 1   
    73   72   76 1   
    74   73   74 1   
    75   73   77 1   
    76   73   78 1   
    77   74   75 2   
    78   74   79 1   
    79   79   80 1   
    80   79   86 1   
    81   80   81 1   
    82   80   83 1   
    83   80   87 1   
    84   81   82 2   
    85   81   93 1   
    86   83   84 1   
    87   83   85 1   
    88   83   88 1   
    89   84   90 1   
    90   84   91 1   
    91   84   92 1   
    92   85   89 1   
    93   93   94 1   
    94   93  101 1   
    95   94   95 1   
    96   94   97 1   
    97   94  102 1   
    98   95   96 2   
    99   95  112 1   
   100   97   98 1   
   101   97   99 1   
   102   97  103 1   
   103   98  100 1   
   104   98  104 1   
   105   98  105 1   
   106   99  106 1   
   107   99  107 1   
   108   99  108 1   
   109  100  109 1   
   110  100  110 1   
   111  100  111 1   
   112  112  113 1   
   113  112  119 1   
   114  113  114 1   
   115  113  116 1   
   116  113  120 1   
   117  114  115 2   
   118  114  126 1   
   119  116  117 1   
   120  116  118 1   
   121  116  121 1   
   122  117  123 1   
   123  117  124 1   
   124  117  125 1   
   125  118  122 1   
   126  126  127 1   
   127  126  133 1   
   128  127  128 1   
   129  127  130 1   
   130  127  134 1   
   131  128  129 2   
   132  128  140 1   
   133  130  131 1   
   134  130  132 1   
   135  130  135 1   
   136  131  137 1   
   137  131  138 1   
   138  131  139 1   
   139  132  136 1   
   140  140  141 1   
   141  140  149 1   
   142  141  142 1   
   143  141  144 1   
   144  141  150 1   
   145  142  143 2   
   146  142  162 1   
   147  144  145 1   
   148  144  151 1   
   149  144  152 1   
   150  145  146 1   
   151  145  153 1   
   152  145  154 1   
   153  146  147 1   
   154  146  155 1   
   155  146  156 1   
   156  147  148 1   
   157  147  157 1   
   158  147  158 1   
   159  148  159 1   
   160  148  160 1   
   161  148  161 1   
   162  162  163 1   
   163  162  171 1   
   164  163  164 1   
   165  163  166 1   
   166  163  172 1   
   167  164  165 2   
   168  164  177 1   
   169  166  167 1   
   170  166  173 1   
   171  166  174 1   
   172  167  168 1   
   173  167  175 1   
   174  167  176 1   
   175  168  169 1   
   176  168  170 1   
   177  177  178 1   
   178  177  182 1   
   179  178  179 1   
   180  178  180 1   
   181  178  181 1   
   182  184  185 1   
   183  184  186 1   
   184  187  188 1   
   185  187  189 1   
@<TRIPOS>SUBSTRUCTURE
     1 MOL         1 TEMP              0 ****  ****    0 ROOT
