@<TRIPOS>MOLECULE
MOL
  189   185     1     0     0
SMALL
resp


@<TRIPOS>ATOM
      1 C1         -0.3990    4.8350    5.5680 c3        1 MOL     -0.391053
      2 C2         -0.6980    3.9540    4.3180 c         1 MOL      0.815350
      3 O1         -0.5560    2.7540    4.2930 o         1 MOL     -0.624638
      4 H1         -0.5380    5.8850    5.3130 hc        1 MOL      0.089666
      5 H2         -1.0800    4.5640    6.3750 hc        1 MOL      0.089666
      6 H3          0.6290    4.6720    5.8890 hc        1 MOL      0.089666
      7 N1         -1.0920    4.7020    3.2790 n         1 MOL     -0.662559
      8 C3         -1.6960    4.1590    2.0660 c3        1 MOL      0.296993
      9 C4         -1.7520    5.1480    0.9910 c         1 MOL      0.375997
     10 O2         -2.0890    6.3150    1.2130 o         1 MOL     -0.586311
     11 C5         -3.1860    3.8170    2.3590 c3        1 MOL     -0.283816
     12 C6         -4.0950    3.0530    1.3700 c         1 MOL      0.832110
     13 O3         -5.3140    3.0170    1.7180 o         1 MOL     -0.711779
     14 O4         -3.6220    2.4850    0.3700 o         1 MOL     -0.711779
     15 H4         -1.2150    5.7000    3.3860 hn        1 MOL      0.317702
     16 H5         -1.1140    3.3340    1.6740 h1        1 MOL      0.059812
     17 H6         -3.7650    4.7190    2.5690 hc        1 MOL      0.049632
     18 H7         -3.2110    3.2750    3.3110 hc        1 MOL      0.049632
     19 N2         -1.5310    4.6260   -0.1960 n         1 MOL      0.043819
     20 C7         -1.6310    5.4340   -1.4640 c3        1 MOL     -0.090594
     21 C8         -2.7100    5.0230   -2.4230 c         1 MOL      0.478536
     22 O5         -3.0880    5.8840   -3.2410 o         1 MOL     -0.594271
     23 C9         -0.2830    5.4180   -2.2030 c3        1 MOL      0.235167
     24 C10         0.0320    4.1070   -2.9500 c3        1 MOL     -0.100149
     25 C11         0.7770    5.7190   -1.1700 c3        1 MOL     -0.270033
     26 C12         1.4630    4.0940   -3.6170 c3        1 MOL     -0.261357
     27 H8         -1.2280    3.6630   -0.2470 hn        1 MOL     -0.080640
     28 H9         -1.7740    6.4760   -1.1910 h1        1 MOL      0.080907
     29 H10        -0.3120    6.2420   -2.9120 hc        1 MOL     -0.039276
     30 H11        -0.6960    4.0750   -3.7580 hc        1 MOL      0.099840
     31 H12        -0.0290    3.2410   -2.2940 hc        1 MOL      0.099840
     32 H13         1.7090    5.9460   -1.6740 hc        1 MOL      0.052581
     33 H14         0.4690    6.6100   -0.6170 hc        1 MOL      0.052581
     34 H15         1.0020    4.9260   -0.4400 hc        1 MOL      0.052581
     35 H16         1.5940    3.4330   -4.4680 hc        1 MOL      0.062116
     36 H17         1.6640    5.1400   -3.8560 hc        1 MOL      0.062116
     37 H18         2.1670    3.8710   -2.8190 hc        1 MOL      0.062116
     38 N3         -3.3260    3.8350   -2.2920 n         1 MOL     -0.249244
     39 C13        -4.1590    3.3410   -3.3240 c3        1 MOL     -0.002607
     40 C14        -5.5270    2.7480   -2.8760 c         1 MOL      0.389262
     41 O6         -6.3220    2.1780   -3.6720 o         1 MOL     -0.551255
     42 C15        -3.4100    2.3340   -4.1800 c3        1 MOL     -0.001676
     43 C16        -2.5590    1.3150   -3.3360 c         1 MOL      0.708482
     44 O7         -2.7670    1.1370   -2.1000 o         1 MOL     -0.708638
     45 O8         -1.6890    0.6850   -3.9590 o         1 MOL     -0.708638
     46 H19        -3.0780    3.1700   -1.5680 hn        1 MOL      0.103430
     47 H20        -4.5150    4.0430   -4.0880 h1        1 MOL      0.089808
     48 H21        -2.6700    2.8630   -4.7680 hc        1 MOL     -0.012624
     49 H22        -4.0550    1.8210   -4.8960 hc        1 MOL     -0.012624
     50 N4         -5.8160    2.6130   -1.5670 n         1 MOL     -0.176904
     51 C17        -7.2040    2.1890   -1.1080 c3        1 MOL     -0.264589
     52 C18        -7.6450    0.7250   -1.2510 c         1 MOL      0.509830
     53 O9         -8.8370    0.3780   -1.3190 o         1 MOL     -0.628355
     54 H23        -5.0710    2.6980   -0.8870 hn        1 MOL      0.144810
     55 H24        -7.9260    2.7980   -1.6390 h1        1 MOL      0.126829
     56 H25        -7.2480    2.4580   -0.0480 h1        1 MOL      0.126829
     57 N5         -6.7440   -0.2280   -1.4440 n         1 MOL     -0.074545
     58 C19        -6.8570   -1.6240   -1.7780 c3        1 MOL     -0.159774
     59 C20        -6.8520   -2.5820   -0.5910 c         1 MOL      0.350543
     60 O10        -6.7190   -3.7980   -0.7780 o         1 MOL     -0.480337
     61 C21        -5.7670   -2.0670   -2.7370 c3        1 MOL     -0.177368
     62 C22        -4.4220   -1.9410   -2.0730 c         1 MOL      0.748702
     63 O11        -4.1820   -1.3150   -1.0490 o         1 MOL     -0.702100
     64 O12        -3.4740   -2.5870   -2.6310 o         1 MOL     -0.702100
     65 H26        -5.8310    0.2060   -1.4060 hn        1 MOL      0.181901
     66 H27        -7.8140   -1.7320   -2.2730 h1        1 MOL      0.141349
     67 H28        -5.8100   -1.5380   -3.6870 hc        1 MOL      0.076884
     68 H29        -5.8150   -3.1230   -3.0240 hc        1 MOL      0.076884
     69 N6         -6.9860   -2.1410    0.6480 n         1 MOL     -0.139572
     70 C23        -7.0820   -2.9940    1.8150 c3        1 MOL     -0.062726
     71 C24        -5.9270   -3.9280    2.2910 c         1 MOL      0.572574
     72 O13        -6.2360   -4.8800    2.9710 o         1 MOL     -0.560590
     73 H30        -7.0610   -1.1390    0.7350 hn        1 MOL      0.169859
     74 H31        -8.0520   -3.4830    1.7030 h1        1 MOL      0.044400
     75 H32        -7.2680   -2.3280    2.6700 h1        1 MOL      0.044400
     76 N7         -4.6780   -3.5900    1.9750 n         1 MOL     -0.420887
     77 C25        -3.5010   -4.3970    2.0560 c3        1 MOL      0.097037
     78 C26        -2.2080   -3.5160    1.8530 c         1 MOL      0.464297
     79 O14        -2.2540   -2.4130    1.3070 o         1 MOL     -0.437581
     80 C27        -3.5520   -5.5450    1.0530 c3        1 MOL     -0.313638
     81 C28        -3.4700   -4.9870   -0.4170 c3        1 MOL     -0.043488
     82 C29        -3.3990   -6.0050   -1.6060 c         1 MOL      0.602980
     83 N8         -3.3380   -5.4430   -2.7960 n         1 MOL     -0.746463
     84 O15        -3.4750   -7.2040   -1.4180 o         1 MOL     -0.600215
     85 H33        -4.5100   -2.6750    1.5750 hn        1 MOL      0.244582
     86 H34        -3.4770   -4.7990    3.0700 h1        1 MOL      0.036256
     87 H35        -4.4420   -6.1340    1.2660 hc        1 MOL      0.107792
     88 H36        -2.7520   -6.2590    1.2610 hc        1 MOL      0.107792
     89 H37        -2.5720   -4.3620   -0.4930 hc        1 MOL      0.078302
     90 H38        -4.3610   -4.3770   -0.5380 hc        1 MOL      0.078302
     91 H39        -3.3800   -4.4350   -2.9050 hn        1 MOL      0.334753
     92 H40        -3.5520   -5.9980   -3.6130 hn        1 MOL      0.334753
     93 N9         -1.0540   -3.9660    2.3710 n         1 MOL     -0.401561
     94 C30         0.1340   -3.1060    2.6190 c3        1 MOL     -0.131745
     95 C31         1.3030   -3.4800    1.7080 c         1 MOL      0.695559
     96 O16         1.8450   -4.5560    1.8520 o         1 MOL     -0.582497
     97 C32         0.4860   -3.0070    4.0770 c3        1 MOL      0.313591
     98 C33         1.8720   -2.4460    4.3350 c3        1 MOL     -0.321314
     99 C34        -0.5800   -2.1450    4.7510 c3        1 MOL     -0.321314
    100 H41        -1.0060   -4.8210    2.9080 hn        1 MOL      0.275014
    101 H42        -0.1060   -2.0770    2.3470 h1        1 MOL      0.025548
    102 H43         0.4730   -3.9820    4.5690 hc        1 MOL     -0.036063
    103 H44         1.9110   -1.4510    3.8890 hc        1 MOL      0.068827
    104 H45         1.8820   -2.4260    5.4240 hc        1 MOL      0.068827
    105 H46         2.5520   -3.0800    3.7630 hc        1 MOL      0.068827
    106 H47        -0.6100   -2.0560    5.8350 hc        1 MOL      0.068827
    107 H48        -0.4840   -1.1160    4.4060 hc        1 MOL      0.068827
    108 H49        -1.5440   -2.6440    4.6310 hc        1 MOL      0.068827
    109 N10         1.5880   -2.5710    0.7130 n         1 MOL     -0.461404
    110 C35         2.8770   -2.5500   -0.0160 c3        1 MOL      0.089863
    111 C36         4.0880   -2.2270    0.7380 c         1 MOL      0.198805
    112 O17         4.1040   -1.4630    1.6960 o         1 MOL     -0.171417
    113 C37         2.6520   -1.5680   -1.1720 c3        1 MOL     -0.088663
    114 C38         3.6650   -1.5900   -2.3050 c         1 MOL      0.678917
    115 N11         3.9900   -2.6520   -2.8320 n         1 MOL     -0.732437
    116 O18         4.2150   -0.5770   -2.6290 o         1 MOL     -0.567709
    117 H50         1.1650   -1.6610    0.8300 hn        1 MOL      0.286331
    118 H51         3.0610   -3.5320   -0.4600 h1        1 MOL      0.042245
    119 H52         2.7750   -0.5640   -0.7760 hc        1 MOL      0.051567
    120 H53         1.6810   -1.7750   -1.6270 hc        1 MOL      0.051567
    121 H54         3.6870   -3.5780   -2.5320 hn        1 MOL      0.342854
    122 H55         4.6700   -2.5740   -3.5620 hn        1 MOL      0.342854
    123 N12         5.3050   -2.5820    0.2160 n         1 MOL     -0.257702
    124 C39         6.6360   -2.1450    0.7410 c3        1 MOL      0.115893
    125 C40         6.8370   -0.6270    0.9990 c         1 MOL      0.406626
    126 O19         7.2380   -0.2670    2.1280 o         1 MOL     -0.536143
    127 C41         7.7390   -2.7810   -0.1280 c3        1 MOL     -0.245108
    128 C42         7.4550   -2.9820   -1.6080 ca        1 MOL      0.046790
    129 C43         7.0110   -4.1750   -2.1820 ca        1 MOL     -0.101633
    130 C44         7.7360   -1.9120   -2.4940 ca        1 MOL     -0.101633
    131 C45         6.7940   -4.2720   -3.5790 ca        1 MOL     -0.281558
    132 C46         7.5460   -1.9840   -3.8910 ca        1 MOL     -0.281558
    133 C47         6.9800   -3.1130   -4.3870 ca        1 MOL      0.363314
    134 O20         6.5170   -3.1880   -5.6950 oh        1 MOL     -0.587315
    135 H56         5.4860   -2.9640   -0.7110 hn        1 MOL      0.128957
    136 H57         6.7170   -2.5700    1.7400 h1        1 MOL      0.037973
    137 H58         7.9370   -3.7810    0.2530 hc        1 MOL      0.101809
    138 H59         8.6150   -2.1590    0.0360 hc        1 MOL      0.101809
    139 H60         6.9030   -5.0390   -1.5510 ha        1 MOL      0.096251
    140 H61         8.1840   -1.0010   -2.1520 ha        1 MOL      0.096251
    141 H62         6.4990   -5.2000   -4.0380 ha        1 MOL      0.146375
    142 H63         7.6910   -1.1730   -4.5910 ha        1 MOL      0.146375
    143 H64         6.7810   -2.4330   -6.2230 ho        1 MOL      0.421801
    144 N13         6.4410    0.2410    0.0590 n         1 MOL     -0.195877
    145 C48         6.5160    1.7890    0.1600 c3        1 MOL     -0.308789
    146 C49         5.4100    2.4790    1.0340 c         1 MOL      0.549573
    147 O21         5.2860    3.6570    1.0750 o         1 MOL     -0.548817
    148 C50         6.3740    2.3960   -1.2520 c3        1 MOL      0.063279
    149 C51         7.4240    1.9880   -2.2720 c3        1 MOL     -0.203147
    150 C52         8.8480    2.1380   -1.7430 c         1 MOL      0.722450
    151 O22         9.2910    3.2090   -1.3160 o         1 MOL     -0.718961
    152 O23         9.6860    1.1920   -1.8420 o         1 MOL     -0.718961
    153 H65         6.2450   -0.1550   -0.8440 hn        1 MOL      0.238260
    154 H66         7.4810    1.9580    0.6340 h1        1 MOL      0.194693
    155 H67         6.3450    3.4860   -1.2030 hc        1 MOL      0.027227
    156 H68         5.3990    2.1160   -1.6570 hc        1 MOL      0.027227
    157 H69         7.2980    2.5650   -3.1950 hc        1 MOL      0.029251
    158 H70         7.1930    0.9530   -2.5230 hc        1 MOL      0.029251
    159 N14         4.5300    1.6340    1.5130 n         1 MOL     -0.073882
    160 C53         3.6150    1.9830    2.6090 c3        1 MOL     -0.009631
    161 C54         4.1460    1.4620    4.0050 c         1 MOL      0.415784
    162 O24         4.3130    2.3230    4.9040 o         1 MOL     -0.548087
    163 C55         2.3080    1.3490    2.3010 c3        1 MOL     -0.110861
    164 C56         1.6330    1.9220    1.0720 c3        1 MOL      0.084128
    165 C57         0.4160    1.2250    0.4950 c         1 MOL      0.817652
    166 O25        -0.4800    1.8470   -0.0450 o         1 MOL     -0.738099
    167 O26         0.2020    0.0010    0.6860 o         1 MOL     -0.738099
    168 H71         4.7470    0.6530    1.4320 hn        1 MOL      0.016584
    169 H72         3.3790    3.0490    2.6580 h1        1 MOL      0.068093
    170 H73         1.5950    1.4960    3.1130 hc        1 MOL      0.020507
    171 H74         2.3630    0.2570    2.2380 hc        1 MOL      0.020507
    172 H75         2.3530    2.0530    0.2530 hc        1 MOL     -0.017213
    173 H76         1.2860    2.9210    1.3340 hc        1 MOL     -0.017213
    174 N15         4.4260    0.1490    4.1380 n         1 MOL     -0.059611
    175 C58         5.1200   -0.4400    5.2760 c3        1 MOL     -0.239116
    176 H77         5.9750    0.1820    5.5420 h1        1 MOL      0.089049
    177 H78         4.4380   -0.5010    6.1250 h1        1 MOL      0.089049
    178 H79         5.4660   -1.4390    5.0140 h1        1 MOL      0.089049
    179 H80         4.2660   -0.4660    3.3490 hn        1 MOL      0.067456
    180 Ca1        -2.4820    0.1270    0.2930 Ca        1 MOL      1.773713
    181 O27        -2.1520    0.7520    2.9680 oh        1 MOL     -0.935937
    182 O28        -1.2920   -1.5340   -1.6660 oh        1 MOL     -0.935937
    183 H81        -1.4090    1.1190    3.4530 ho        1 MOL      0.436169
    184 H82        -1.0580   -1.0850   -2.4830 ho        1 MOL      0.436169
    185 H83        -2.5050    0.0840    3.5460 ho        1 MOL      0.436169
    186 H84        -2.1200   -1.9690   -1.8660 ho        1 MOL      0.436169
    187 O29        -4.5420   -0.4670    1.9060 oh        1 MOL     -0.935937
    188 H85        -5.4050   -0.0900    1.7620 ho        1 MOL      0.436169
    189 H86        -4.4260   -0.4620    2.8530 ho        1 MOL      0.436169
@<TRIPOS>BOND
     1    1    2 1   
     2    1    4 1   
     3    1    5 1   
     4    1    6 1   
     5    2    3 2   
     6    2    7 1   
     7    7    8 1   
     8    7   15 1   
     9    8    9 1   
    10    8   11 1   
    11    8   16 1   
    12    9   10 2   
    13    9   19 1   
    14   11   12 1   
    15   11   17 1   
    16   11   18 1   
    17   12   13 1   
    18   12   14 1   
    19   19   20 1   
    20   19   27 1   
    21   20   21 1   
    22   20   23 1   
    23   20   28 1   
    24   21   22 2   
    25   21   38 1   
    26   23   24 1   
    27   23   25 1   
    28   23   29 1   
    29   24   26 1   
    30   24   30 1   
    31   24   31 1   
    32   25   32 1   
    33   25   33 1   
    34   25   34 1   
    35   26   35 1   
    36   26   36 1   
    37   26   37 1   
    38   38   39 1   
    39   38   46 1   
    40   39   40 1   
    41   39   42 1   
    42   39   47 1   
    43   40   41 2   
    44   40   50 1   
    45   42   43 1   
    46   42   48 1   
    47   42   49 1   
    48   43   44 1   
    49   43   45 1   
    50   50   51 1   
    51   50   54 1   
    52   51   52 1   
    53   51   55 1   
    54   51   56 1   
    55   52   53 2   
    56   52   57 1   
    57   57   58 1   
    58   57   65 1   
    59   58   59 1   
    60   58   61 1   
    61   58   66 1   
    62   59   60 2   
    63   59   69 1   
    64   61   62 1   
    65   61   67 1   
    66   61   68 1   
    67   62   63 1   
    68   62   64 1   
    69   69   70 1   
    70   69   73 1   
    71   70   71 1   
    72   70   74 1   
    73   70   75 1   
    74   71   72 2   
    75   71   76 1   
    76   76   77 1   
    77   76   85 1   
    78   77   78 1   
    79   77   80 1   
    80   77   86 1   
    81   78   79 2   
    82   78   93 1   
    83   80   81 1   
    84   80   87 1   
    85   80   88 1   
    86   81   82 1   
    87   81   89 1   
    88   81   90 1   
    89   82   83 1   
    90   82   84 2   
    91   83   91 1   
    92   83   92 1   
    93   93   94 1   
    94   93  100 1   
    95   94   95 1   
    96   94   97 1   
    97   94  101 1   
    98   95   96 2   
    99   95  109 1   
   100   97   98 1   
   101   97   99 1   
   102   97  102 1   
   103   98  103 1   
   104   98  104 1   
   105   98  105 1   
   106   99  106 1   
   107   99  107 1   
   108   99  108 1   
   109  109  110 1   
   110  109  117 1   
   111  110  111 1   
   112  110  113 1   
   113  110  118 1   
   114  111  112 2   
   115  111  123 1   
   116  113  114 1   
   117  113  119 1   
   118  113  120 1   
   119  114  115 1   
   120  114  116 2   
   121  115  121 1   
   122  115  122 1   
   123  123  124 1   
   124  123  135 1   
   125  124  125 1   
   126  124  127 1   
   127  124  136 1   
   128  125  126 2   
   129  125  144 1   
   130  127  128 1   
   131  127  137 1   
   132  127  138 1   
   133  128  129 ar  
   134  128  130 ar  
   135  129  131 ar  
   136  129  139 1   
   137  130  132 ar  
   138  130  140 1   
   139  131  133 ar  
   140  131  141 1   
   141  132  133 ar  
   142  132  142 1   
   143  133  134 1   
   144  134  143 1   
   145  144  145 1   
   146  144  153 1   
   147  145  146 1   
   148  145  148 1   
   149  145  154 1   
   150  146  147 2   
   151  146  159 1   
   152  148  149 1   
   153  148  155 1   
   154  148  156 1   
   155  149  150 1   
   156  149  157 1   
   157  149  158 1   
   158  150  151 1   
   159  150  152 1   
   160  159  160 1   
   161  159  168 1   
   162  160  161 1   
   163  160  163 1   
   164  160  169 1   
   165  161  162 2   
   166  161  174 1   
   167  163  164 1   
   168  163  170 1   
   169  163  171 1   
   170  164  165 1   
   171  164  172 1   
   172  164  173 1   
   173  165  166 1   
   174  165  167 1   
   175  174  175 1   
   176  174  179 1   
   177  175  176 1   
   178  175  177 1   
   179  175  178 1   
   180  181  183 1   
   181  181  185 1   
   182  182  184 1   
   183  182  186 1   
   184  187  188 1   
   185  187  189 1   
@<TRIPOS>SUBSTRUCTURE
     1 MOL         1 TEMP              0 ****  ****    0 ROOT
