@<TRIPOS>MOLECULE
MOL
  179   176     1     0     0
SMALL
resp


@<TRIPOS>ATOM
      1 C1          2.0490   -3.9390    5.9440 c3        1 MOL     -0.359803
      2 C2          1.9230   -3.6380    4.4680 c         1 MOL      0.704397
      3 O1          1.2230   -4.3690    3.7270 o         1 MOL     -0.656530
      4 H1          1.5630   -3.1500    6.5180 hc        1 MOL      0.096152
      5 H2          1.5710   -4.8930    6.1620 hc        1 MOL      0.096152
      6 H3          3.1030   -3.9880    6.2160 hc        1 MOL      0.096152
      7 N1          2.7060   -2.6880    3.9390 n         1 MOL     -0.506404
      8 C3          2.7220   -2.4660    2.4940 c3        1 MOL      0.152588
      9 C4          3.4860   -3.5680    1.6940 c         1 MOL      0.395935
     10 O2          4.6740   -3.6670    1.7780 o         1 MOL     -0.507962
     11 C5          3.1850   -1.0540    2.1740 c3        1 MOL     -0.095995
     12 C6          3.0340   -0.7590    0.6660 c         1 MOL      0.582120
     13 O3          2.4240   -1.5330   -0.1290 o         1 MOL     -0.675634
     14 O4          3.5320    0.3340    0.2570 o         1 MOL     -0.675634
     15 H4          3.3200   -2.1920    4.5680 hn        1 MOL      0.299635
     16 H5          1.6930   -2.5450    2.1380 h1        1 MOL      0.032807
     17 H6          4.2490   -1.0750    2.3870 hc        1 MOL      0.037766
     18 H7          2.6460   -0.3570    2.8110 hc        1 MOL      0.037766
     19 N2          2.7490   -4.3300    0.8670 n         1 MOL     -0.135670
     20 C7          3.1680   -5.5610    0.2060 c3        1 MOL     -0.022293
     21 C8          3.8800   -5.2800   -1.0950 c         1 MOL      0.530615
     22 O5          4.9390   -5.8700   -1.3000 o         1 MOL     -0.531138
     23 C9          1.8610   -6.3370   -0.0430 c3        1 MOL     -0.386425
     24 C10         0.9650   -6.7900    1.1700 c3        1 MOL      0.226663
     25 C11        -0.3470   -7.5360    0.6650 c3        1 MOL     -0.192148
     26 C12        -1.3140   -7.8890    1.7360 c3        1 MOL     -0.124728
     27 N3         -0.8320   -9.0530    2.5660 n4        1 MOL     -0.322105
     28 H8          1.7590   -4.1180    0.9150 hn        1 MOL      0.224111
     29 H9          3.8460   -6.1210    0.8650 h1        1 MOL      0.088153
     30 H10         2.0590   -7.1550   -0.7350 hc        1 MOL      0.116154
     31 H11         1.2290   -5.6020   -0.5430 hc        1 MOL      0.116154
     32 H12         0.8010   -5.8540    1.7070 hc        1 MOL     -0.003023
     33 H13         1.5300   -7.3800    1.8900 hc        1 MOL     -0.003023
     34 H14        -0.0690   -8.4260    0.1150 hc        1 MOL      0.090692
     35 H15        -0.8020   -6.8520   -0.0470 hc        1 MOL      0.090692
     36 H16        -2.1800   -8.3040    1.2010 hx        1 MOL      0.162106
     37 H17        -1.6200   -7.0440    2.3410 hx        1 MOL      0.162106
     38 H18        -0.5880   -9.8110    1.9600 hn        1 MOL      0.317766
     39 H19         0.0210   -8.8710    3.0700 hn        1 MOL      0.317766
     40 H20        -1.5320   -9.3850    3.2140 hn        1 MOL      0.317766
     41 N4          3.3890   -4.2910   -1.8740 n         1 MOL     -0.436023
     42 C13         4.2030   -3.8920   -2.9670 c3        1 MOL      0.094684
     43 C14         5.4590   -3.1050   -2.4930 c         1 MOL      0.459652
     44 O6          6.4840   -3.2140   -3.0480 o         1 MOL     -0.520538
     45 C15         3.3750   -3.1680   -3.9550 c3        1 MOL     -0.304693
     46 C16         2.5960   -1.8890   -3.5310 c         1 MOL      0.731203
     47 O7          1.4650   -1.9960   -3.0020 o         1 MOL     -0.734135
     48 O8          3.1560   -0.7690   -3.4960 o         1 MOL     -0.734135
     49 H21         2.6150   -3.7080   -1.5790 hn        1 MOL      0.279588
     50 H22         4.5840   -4.7670   -3.4870 h1        1 MOL      0.093026
     51 H23         2.7240   -3.9180   -4.3990 hc        1 MOL      0.075772
     52 H24         4.1090   -2.9620   -4.7310 hc        1 MOL      0.075772
     53 N5          5.3150   -2.2690   -1.4500 n         1 MOL     -0.081977
     54 C17         6.2920   -1.7090   -0.5990 c3        1 MOL     -0.199383
     55 C18         6.8060   -0.3080   -0.8810 c         1 MOL      0.515615
     56 O9          7.9880   -0.0180   -0.7770 o         1 MOL     -0.573827
     57 H25         4.3990   -2.3550   -1.0470 hn        1 MOL      0.140862
     58 H26         7.1000   -2.4450   -0.6360 h1        1 MOL      0.109705
     59 H27         5.9400   -1.7480    0.4330 h1        1 MOL      0.109705
     60 N6          5.9080    0.6280   -1.0880 n         1 MOL     -0.153990
     61 C19         6.1660    2.0280   -1.4510 c3        1 MOL     -0.071037
     62 C20         5.7840    2.9540   -0.3180 c         1 MOL      0.470845
     63 O10         5.8270    4.2050   -0.4580 o         1 MOL     -0.538584
     64 C21         5.4700    2.3520   -2.7980 c3        1 MOL      0.069601
     65 C22         4.0710    2.9140   -2.7110 c         1 MOL      0.643138
     66 N7          3.6640    3.6690   -3.6710 n         1 MOL     -0.679609
     67 O11         3.3200    2.6190   -1.8100 o         1 MOL     -0.699256
     68 H28         4.9380    0.3700   -1.1840 hn        1 MOL      0.037417
     69 H29         7.2410    2.1400   -1.5620 h1        1 MOL      0.135883
     70 H30         5.5050    1.4710   -3.4330 hc        1 MOL      0.003628
     71 H31         6.0700    3.0860   -3.3480 hc        1 MOL      0.003628
     72 H32         4.2280    3.8440   -4.4840 hn        1 MOL      0.338109
     73 H33         2.8900    4.2620   -3.4400 hn        1 MOL      0.338109
     74 N8          5.4310    2.4100    0.8270 n         1 MOL     -0.368665
     75 C23         5.2730    3.1390    2.0780 c3        1 MOL      0.032451
     76 C24         3.8590    3.6220    2.3260 c         1 MOL      0.314922
     77 O12         3.5480    4.2770    3.3280 o         1 MOL     -0.554754
     78 H34         4.8620    1.5740    0.8380 hn        1 MOL      0.241044
     79 H35         5.9920    3.9590    2.0940 h1        1 MOL      0.078286
     80 H36         5.6290    2.5720    2.9470 h1        1 MOL      0.078286
     81 N9          2.9480    3.3980    1.3860 n         1 MOL     -0.080780
     82 C25         1.4730    3.7740    1.3340 c3        1 MOL      0.442748
     83 C26         0.6350    2.5070    1.1510 c         1 MOL      0.031666
     84 O13         1.0540    1.5410    0.5240 o         1 MOL     -0.516675
     85 C27         1.3820    4.7740    0.1880 c3        1 MOL     -0.062261
     86 C28         1.4960    6.1960    0.6410 ca        1 MOL     -0.209227
     87 C29         2.8310    6.7170    0.7700 ca        1 MOL      0.063583
     88 C30         0.3840    6.9860    0.9210 ca        1 MOL      0.063583
     89 C31         2.9640    8.0680    1.2010 ca        1 MOL     -0.445251
     90 C32         0.5260    8.3090    1.3700 ca        1 MOL     -0.445251
     91 C33         1.8290    8.7960    1.6540 ca        1 MOL      0.504494
     92 O14         1.9760    9.9680    2.2740 oh        1 MOL     -0.494890
     93 H37         3.2810    2.8750    0.5880 hn        1 MOL      0.218915
     94 H38         1.1340    4.2720    2.2430 h1        1 MOL     -0.021328
     95 H39         0.3720    4.6830   -0.2080 hc        1 MOL      0.025056
     96 H40         2.1760    4.6160   -0.5500 hc        1 MOL      0.025056
     97 H41         3.6650    6.1230    0.4070 ha        1 MOL      0.081386
     98 H42        -0.5860    6.5470    0.7250 ha        1 MOL      0.081386
     99 H43         3.9680    8.4670    1.2030 ha        1 MOL      0.180362
    100 H44        -0.3670    8.7810    1.7470 ha        1 MOL      0.180362
    101 H45         1.1970   10.4570    2.5330 ho        1 MOL      0.359082
    102 N10        -0.6190    2.5980    1.6640 n         1 MOL     -0.285996
    103 C34        -1.7780    1.7130    1.5060 c3        1 MOL     -0.107793
    104 C35        -3.0230    2.5920    1.2150 c         1 MOL      0.654736
    105 O15        -3.3660    3.5530    1.9120 o         1 MOL     -0.576535
    106 C36        -1.8340    0.8250    2.8230 c3        1 MOL     -0.007123
    107 C37        -0.5210   -0.0010    3.0760 c3        1 MOL      0.291573
    108 C38        -2.9880   -0.0930    2.8010 c3        1 MOL     -0.068355
    109 C39        -0.5320   -0.6290    4.4530 c3        1 MOL     -0.302771
    110 H46        -0.8370    3.4250    2.2080 hn        1 MOL      0.254865
    111 H47        -1.6850    1.0840    0.6160 h1        1 MOL      0.112353
    112 H48        -1.9080    1.4490    3.7180 hc        1 MOL      0.022366
    113 H49         0.3680    0.6240    3.1370 hc        1 MOL     -0.014805
    114 H50        -0.3380   -0.6750    2.2400 hc        1 MOL     -0.014805
    115 H51        -3.8840    0.4610    2.5210 hc        1 MOL      0.004141
    116 H52        -2.7740   -0.8680    2.0610 hc        1 MOL      0.004141
    117 H53        -3.0550   -0.5380    3.8010 hc        1 MOL      0.004141
    118 H54        -0.7520   -1.6910    4.3030 hc        1 MOL      0.063228
    119 H55         0.4790   -0.5450    4.8370 hc        1 MOL      0.063228
    120 H56        -1.1620   -0.1420    5.2010 hc        1 MOL      0.063228
    121 N11        -3.7550    2.2510    0.1020 n         1 MOL     -0.309165
    122 C40        -5.0240    2.9580   -0.3060 c3        1 MOL     -0.156758
    123 C41        -6.2540    2.2590    0.3330 c         1 MOL      0.552357
    124 O16        -6.0590    1.2040    0.9560 o         1 MOL     -0.432823
    125 C42        -5.1290    2.9050   -1.7870 c3        1 MOL     -0.010440
    126 O17        -4.9440    1.6310   -2.3460 oh        1 MOL     -0.575517
    127 H57        -3.3520    1.5070   -0.4420 hn        1 MOL      0.225181
    128 H58        -4.9910    3.9730    0.0700 h1        1 MOL      0.107720
    129 H59        -4.3950    3.6030   -2.2000 h1        1 MOL      0.077395
    130 H60        -6.0540    3.3020   -2.1930 h1        1 MOL      0.077395
    131 H61        -4.0000    1.4750   -2.4080 ho        1 MOL      0.416264
    132 N12        -7.5030    2.6520   -0.0380 n         1 MOL     -0.444623
    133 C43        -8.6820    1.9170    0.3150 c3        1 MOL      0.044870
    134 C44        -8.8140    0.4910   -0.4510 c         1 MOL      0.461219
    135 O18        -9.3100   -0.4560    0.1700 o         1 MOL     -0.505996
    136 C45        -9.9070    2.8700    0.2140 c3        1 MOL     -0.094375
    137 H62        -7.6790    3.6090   -0.2970 hn        1 MOL      0.276864
    138 H63        -8.6060    1.6040    1.3560 h1        1 MOL      0.081160
    139 H64       -10.1880    3.0210   -0.8310 hc        1 MOL      0.041019
    140 H65       -10.7840    2.4890    0.7210 hc        1 MOL      0.041019
    141 H66        -9.7630    3.8610    0.6350 hc        1 MOL      0.041019
    142 N13        -8.3920    0.4300   -1.7120 n         1 MOL     -0.356397
    143 C46        -8.3880   -0.8180   -2.5160 c3        1 MOL      0.119776
    144 C47        -7.4200   -1.8510   -2.0130 c         1 MOL      0.399909
    145 O19        -7.7630   -3.0220   -1.9510 o         1 MOL     -0.524072
    146 C48        -8.1570   -0.3270   -3.9250 c3        1 MOL     -0.264982
    147 H67        -8.0850    1.2940   -2.1270 hn        1 MOL      0.280308
    148 H68        -9.4180   -1.1660   -2.4920 h1        1 MOL      0.073117
    149 H69        -8.2590   -1.1500   -4.6270 hc        1 MOL      0.075516
    150 H70        -8.7960    0.5300   -4.1350 hc        1 MOL      0.075516
    151 H71        -7.0920   -0.0970   -3.9990 hc        1 MOL      0.075516
    152 N14        -6.3300   -1.3700   -1.4800 n         1 MOL      0.001541
    153 C49        -5.3480   -2.2250   -0.7430 c3        1 MOL     -0.271600
    154 C50        -5.8490   -2.8410    0.5490 c         1 MOL      0.497378
    155 O20        -5.5850   -4.0130    0.8950 o         1 MOL     -0.548500
    156 C51        -3.9310   -1.6190   -0.6280 c3        1 MOL      0.065637
    157 C52        -3.1260   -1.5380   -1.9570 c3        1 MOL     -0.358008
    158 C53        -2.0530   -0.5070   -1.7710 c         1 MOL      0.925609
    159 O21        -2.4560    0.6480   -1.9850 o         1 MOL     -0.768889
    160 O22        -0.8810   -0.8370   -1.5210 o         1 MOL     -0.768889
    161 H72        -6.1790   -0.3740   -1.3830 hn        1 MOL      0.052619
    162 H73        -5.2450   -3.0530   -1.4490 h1        1 MOL      0.118525
    163 H74        -3.4080   -2.2040    0.1330 hc        1 MOL      0.054411
    164 H75        -4.2100   -0.6520   -0.2230 hc        1 MOL      0.054411
    165 H76        -3.7840   -1.2050   -2.7530 hc        1 MOL      0.093472
    166 H77        -2.8250   -2.5540   -2.2240 hc        1 MOL      0.093472
    167 N15        -6.5600   -1.9540    1.2930 n         1 MOL     -0.097082
    168 C54        -6.7890   -2.1010    2.6910 c3        1 MOL     -0.320349
    169 H78        -7.2040   -1.1750    3.0900 h1        1 MOL      0.115550
    170 H79        -7.4930   -2.9160    2.8620 h1        1 MOL      0.115550
    171 H80        -5.8470   -2.3220    3.1930 h1        1 MOL      0.115550
    172 H81        -6.8890   -1.1360    0.7910 hn        1 MOL      0.151645
    173 Ca1         1.4810    0.4220   -1.8100 Ca        1 MOL      1.842164
    174 O23        -0.4130    2.2250   -1.8720 oh        1 MOL     -0.851565
    175 H82        -1.2870    1.8970   -2.0710 ho        1 MOL      0.403767
    176 H83        -0.3480    3.0470   -2.3510 ho        1 MOL      0.403767
    177 O24         1.0970    1.4620   -4.2180 oh        1 MOL     -0.851565
    178 H84         1.6820    2.0280   -4.7290 ho        1 MOL      0.403767
    179 H85         0.2540    1.5120   -4.6830 ho        1 MOL      0.403767
@<TRIPOS>BOND
     1    1    2 1   
     2    1    4 1   
     3    1    5 1   
     4    1    6 1   
     5    2    3 2   
     6    2    7 1   
     7    7    8 1   
     8    7   15 1   
     9    8    9 1   
    10    8   11 1   
    11    8   16 1   
    12    9   10 2   
    13    9   19 1   
    14   11   12 1   
    15   11   17 1   
    16   11   18 1   
    17   12   13 1   
    18   12   14 1   
    19   19   20 1   
    20   19   28 1   
    21   20   21 1   
    22   20   23 1   
    23   20   29 1   
    24   21   22 2   
    25   21   41 1   
    26   23   24 1   
    27   23   30 1   
    28   23   31 1   
    29   24   25 1   
    30   24   32 1   
    31   24   33 1   
    32   25   26 1   
    33   25   34 1   
    34   25   35 1   
    35   26   27 1   
    36   26   36 1   
    37   26   37 1   
    38   27   38 1   
    39   27   39 1   
    40   27   40 1   
    41   41   42 1   
    42   41   49 1   
    43   42   43 1   
    44   42   45 1   
    45   42   50 1   
    46   43   44 2   
    47   43   53 1   
    48   45   46 1   
    49   45   51 1   
    50   45   52 1   
    51   46   47 1   
    52   46   48 1   
    53   53   54 1   
    54   53   57 1   
    55   54   55 1   
    56   54   58 1   
    57   54   59 1   
    58   55   56 2   
    59   55   60 1   
    60   60   61 1   
    61   60   68 1   
    62   61   62 1   
    63   61   64 1   
    64   61   69 1   
    65   62   63 2   
    66   62   74 1   
    67   64   65 1   
    68   64   70 1   
    69   64   71 1   
    70   65   66 1   
    71   65   67 2   
    72   66   72 1   
    73   66   73 1   
    74   74   75 1   
    75   74   78 1   
    76   75   76 1   
    77   75   79 1   
    78   75   80 1   
    79   76   77 2   
    80   76   81 1   
    81   81   82 1   
    82   81   93 1   
    83   82   83 1   
    84   82   85 1   
    85   82   94 1   
    86   83   84 2   
    87   83  102 1   
    88   85   86 1   
    89   85   95 1   
    90   85   96 1   
    91   86   87 ar  
    92   86   88 ar  
    93   87   89 ar  
    94   87   97 1   
    95   88   90 ar  
    96   88   98 1   
    97   89   91 ar  
    98   89   99 1   
    99   90   91 ar  
   100   90  100 1   
   101   91   92 1   
   102   92  101 1   
   103  102  103 1   
   104  102  110 1   
   105  103  104 1   
   106  103  106 1   
   107  103  111 1   
   108  104  105 2   
   109  104  121 1   
   110  106  107 1   
   111  106  108 1   
   112  106  112 1   
   113  107  109 1   
   114  107  113 1   
   115  107  114 1   
   116  108  115 1   
   117  108  116 1   
   118  108  117 1   
   119  109  118 1   
   120  109  119 1   
   121  109  120 1   
   122  121  122 1   
   123  121  127 1   
   124  122  123 1   
   125  122  125 1   
   126  122  128 1   
   127  123  124 2   
   128  123  132 1   
   129  125  126 1   
   130  125  129 1   
   131  125  130 1   
   132  126  131 1   
   133  132  133 1   
   134  132  137 1   
   135  133  134 1   
   136  133  136 1   
   137  133  138 1   
   138  134  135 2   
   139  134  142 1   
   140  136  139 1   
   141  136  140 1   
   142  136  141 1   
   143  142  143 1   
   144  142  147 1   
   145  143  144 1   
   146  143  146 1   
   147  143  148 1   
   148  144  145 2   
   149  144  152 1   
   150  146  149 1   
   151  146  150 1   
   152  146  151 1   
   153  152  153 1   
   154  152  161 1   
   155  153  154 1   
   156  153  156 1   
   157  153  162 1   
   158  154  155 2   
   159  154  167 1   
   160  156  157 1   
   161  156  163 1   
   162  156  164 1   
   163  157  158 1   
   164  157  165 1   
   165  157  166 1   
   166  158  159 1   
   167  158  160 1   
   168  167  168 1   
   169  167  172 1   
   170  168  169 1   
   171  168  170 1   
   172  168  171 1   
   173  174  175 1   
   174  174  176 1   
   175  177  178 1   
   176  177  179 1   
@<TRIPOS>SUBSTRUCTURE
     1 MOL         1 TEMP              0 ****  ****    0 ROOT
