@<TRIPOS>MOLECULE
MOL
  186   183     1     0     0
SMALL
resp


@<TRIPOS>ATOM
      1 C1          0.3730   -2.1140    6.3140 c3        1 MOL     -0.308134
      2 C2          0.6680   -1.9820    4.8190 c         1 MOL      0.779283
      3 O1         -0.2970   -2.0850    4.0680 o         1 MOL     -0.597768
      4 H1         -0.3530   -2.9120    6.4720 hc        1 MOL      0.063952
      5 H2          1.2940   -2.3510    6.8460 hc        1 MOL      0.063952
      6 H3         -0.0330   -1.1750    6.6890 hc        1 MOL      0.063952
      7 N1          1.9090   -1.7510    4.4660 n         1 MOL     -0.653548
      8 C3          2.4590   -1.7260    3.0960 c3        1 MOL      0.243928
      9 C4          3.0060   -3.0760    2.7080 c         1 MOL      0.499716
     10 O2          3.7150   -3.7490    3.4480 o         1 MOL     -0.595269
     11 C5          3.6370   -0.7190    3.0530 c3        1 MOL     -0.435132
     12 C6          4.4200   -0.6780    1.7470 c         1 MOL      0.841003
     13 O3          3.8710   -0.9680    0.6740 o         1 MOL     -0.695271
     14 O4          5.5200   -0.1230    1.7820 o         1 MOL     -0.695271
     15 H4          2.4960   -1.2130    5.0770 hn        1 MOL      0.318658
     16 H5          1.6600   -1.4950    2.4060 h1        1 MOL      0.073337
     17 H6          4.3040   -1.0580    3.8460 hc        1 MOL      0.085753
     18 H7          3.2650    0.2760    3.2940 hc        1 MOL      0.085753
     19 N2          2.6420   -3.6620    1.5340 n         1 MOL     -0.013453
     20 C7          2.8720   -5.0600    1.2260 c3        1 MOL     -0.215964
     21 C8          3.8590   -5.1770    0.0520 c         1 MOL      0.394148
     22 O5          4.2260   -6.3300   -0.1780 o         1 MOL     -0.577422
     23 C9          1.5460   -5.7360    0.7290 c3        1 MOL      0.425727
     24 C10         1.0280   -5.1590   -0.6790 c3        1 MOL     -0.255136
     25 C11         0.4950   -5.6080    1.8210 c3        1 MOL     -0.519813
     26 C12        -0.1610   -5.9510   -1.2220 c3        1 MOL     -0.143991
     27 H8          1.9260   -3.1630    1.0380 hn        1 MOL      0.087850
     28 H9          3.2210   -5.7090    2.0320 h1        1 MOL      0.113414
     29 H10         1.6980   -6.8050    0.6060 hc        1 MOL     -0.049532
     30 H11         1.8520   -5.2480   -1.3970 hc        1 MOL      0.103111
     31 H12         0.7870   -4.1020   -0.5620 hc        1 MOL      0.103111
     32 H13         0.1630   -4.5890    2.0290 hc        1 MOL      0.120099
     33 H14        -0.2570   -6.3360    1.5060 hc        1 MOL      0.120099
     34 H15         1.0500   -5.9370    2.7060 hc        1 MOL      0.120099
     35 H16        -0.3480   -5.6850   -2.2550 hc        1 MOL      0.043308
     36 H17        -0.0760   -7.0360   -1.2690 hc        1 MOL      0.043308
     37 H18        -1.0470   -5.7950   -0.6030 hc        1 MOL      0.043308
     38 N3          4.1970   -4.1270   -0.7010 n         1 MOL     -0.171168
     39 C13         5.2220   -4.1560   -1.7580 c3        1 MOL     -0.038774
     40 C14         6.3920   -3.2090   -1.4560 c         1 MOL      0.458428
     41 O6          7.2210   -3.0930   -2.3380 o         1 MOL     -0.517420
     42 C15         4.4730   -3.9290   -3.0880 c3        1 MOL     -0.194611
     43 C16         3.6030   -2.6390   -3.1910 c         1 MOL      0.724902
     44 O7          3.5600   -1.8150   -2.2590 o         1 MOL     -0.693583
     45 O8          3.0030   -2.4340   -4.2840 o         1 MOL     -0.693583
     46 H19         3.8070   -3.2390   -0.4360 hn        1 MOL      0.102845
     47 H20         5.4850   -5.2120   -1.7500 h1        1 MOL      0.098319
     48 H21         3.7580   -4.7500   -3.0440 hc        1 MOL      0.055190
     49 H22         5.0990   -3.9460   -3.9800 hc        1 MOL      0.055190
     50 N4          6.5520   -2.6870   -0.2120 n         1 MOL     -0.291660
     51 C17         7.7310   -1.9940    0.3460 c3        1 MOL     -0.139830
     52 C18         8.0810   -0.7500   -0.4500 c         1 MOL      0.498695
     53 O9          9.2730   -0.4850   -0.5590 o         1 MOL     -0.593024
     54 H23         5.7080   -2.8670    0.3020 hn        1 MOL      0.198612
     55 H24         8.5730   -2.6830    0.2090 h1        1 MOL      0.096183
     56 H25         7.5960   -1.7570    1.4040 h1        1 MOL      0.096183
     57 N5          7.0850   -0.0770   -1.0550 n         1 MOL     -0.107877
     58 C19         7.2960    1.1550   -1.9100 c3        1 MOL     -0.083036
     59 C20         7.4190    2.4510   -1.0790 c         1 MOL      0.406617
     60 O10         7.7630    3.5280   -1.6600 o         1 MOL     -0.547354
     61 C21         6.1880    1.2830   -2.9070 c3        1 MOL     -0.245578
     62 C22         4.7620    1.2620   -2.4130 c         1 MOL      0.699336
     63 O11         4.4440    1.7240   -1.2730 o         1 MOL     -0.678903
     64 O12         3.8590    0.9430   -3.2270 o         1 MOL     -0.678903
     65 H26         6.1870   -0.3190   -0.6620 hn        1 MOL      0.100410
     66 H27         8.2770    1.0050   -2.3600 h1        1 MOL      0.116000
     67 H28         6.3270    0.4630   -3.6070 hc        1 MOL      0.088444
     68 H29         6.3310    2.1900   -3.4960 hc        1 MOL      0.088444
     69 N6          7.1360    2.3580    0.2300 n         1 MOL     -0.174181
     70 C23         7.1150    3.4340    1.1750 c3        1 MOL     -0.294821
     71 C24         5.7950    4.2160    1.3610 c         1 MOL      0.658347
     72 O13         5.7700    5.2880    1.9850 o         1 MOL     -0.603125
     73 H30         6.7650    1.4750    0.5390 hn        1 MOL      0.224396
     74 H31         7.9620    4.0350    0.8620 h1        1 MOL      0.119249
     75 H32         7.3400    2.8940    2.0980 h1        1 MOL      0.119249
     76 N7          4.6760    3.7090    0.7290 n         1 MOL     -0.380854
     77 C25         3.3040    4.2330    0.8890 c3        1 MOL      0.009499
     78 C26         2.2810    3.1150    1.0850 c         1 MOL      0.599079
     79 O14         2.5230    1.9040    0.8770 o         1 MOL     -0.669124
     80 C27         2.8730    5.0560   -0.3820 c3        1 MOL     -0.001433
     81 C28         3.3450    6.5510   -0.4070 c3        1 MOL     -0.242351
     82 C29         2.9800    7.3410   -1.6530 c         1 MOL      0.645364
     83 N8          3.4260    6.9570   -2.7790 n         1 MOL     -0.748684
     84 O15         2.1960    8.2840   -1.5630 o         1 MOL     -0.588067
     85 H33         4.7710    3.0140    0.0070 hn        1 MOL      0.284082
     86 H34         3.3030    4.7980    1.8180 h1        1 MOL      0.046898
     87 H35         1.7800    5.0460   -0.4110 hc        1 MOL      0.022736
     88 H36         3.2150    4.4670   -1.2230 hc        1 MOL      0.022736
     89 H37         4.4290    6.5490   -0.2990 hc        1 MOL      0.083746
     90 H38         2.8030    7.1130    0.3580 hc        1 MOL      0.083746
     91 H39         3.9350    6.0790   -2.8210 hn        1 MOL      0.353531
     92 H40         2.8420    7.2710   -3.5340 hn        1 MOL      0.353531
     93 N9          1.2120    3.5780    1.7560 n         1 MOL     -0.363319
     94 C30        -0.1080    2.7720    1.9490 c3        1 MOL      0.040764
     95 C31        -1.1220    3.3210    0.8980 c         1 MOL      0.315262
     96 O16        -1.4560    4.4750    0.7890 o         1 MOL     -0.536557
     97 C32        -0.5520    2.9470    3.3930 c3        1 MOL      0.102481
     98 C33        -1.9590    2.5070    3.6880 c3        1 MOL     -0.128136
     99 C34         0.2730    2.2960    4.4530 c3        1 MOL     -0.128136
    100 H41         1.1840    4.5710    1.9460 hn        1 MOL      0.261792
    101 H42         0.0300    1.7010    1.8450 h1        1 MOL      0.179665
    102 H43        -0.4450    4.0170    3.5670 hc        1 MOL     -0.009707
    103 H44        -2.3190    2.7300    4.6930 hc        1 MOL      0.024669
    104 H45        -2.6800    3.0630    3.0930 hc        1 MOL      0.024669
    105 H46        -2.1140    1.4510    3.4640 hc        1 MOL      0.024669
    106 H47         1.2910    2.6750    4.3360 hc        1 MOL      0.024669
    107 H48        -0.0520    2.5190    5.4590 hc        1 MOL      0.024669
    108 H49         0.3740    1.2250    4.2860 hc        1 MOL      0.024669
    109 N10        -1.7790    2.4250    0.1410 n         1 MOL     -0.216329
    110 C35        -2.9410    2.7680   -0.7090 c3        1 MOL      0.287651
    111 C36        -4.2930    2.3420   -0.1310 c         1 MOL      0.337386
    112 O17        -4.3590    1.6440    0.9380 o         1 MOL     -0.360332
    113 C37        -2.6780    2.2970   -2.1420 c3        1 MOL     -0.393017
    114 C38        -3.1540    0.8820   -2.4790 c         1 MOL      0.696913
    115 N11        -2.2870   -0.0850   -2.4800 n         1 MOL     -0.776306
    116 O18        -4.2640    0.6660   -2.8710 o         1 MOL     -0.603834
    117 H50        -1.5380    1.4450    0.1260 hn        1 MOL      0.255343
    118 H51        -3.0360    3.8500   -0.7870 h1        1 MOL      0.021701
    119 H52        -1.5970    2.3300   -2.2520 hc        1 MOL      0.115002
    120 H53        -3.0540    3.0310   -2.8560 hc        1 MOL      0.115002
    121 H54        -1.2950    0.0870   -2.3810 hn        1 MOL      0.391480
    122 H55        -2.5840   -1.0010   -2.7750 hn        1 MOL      0.391480
    123 N12        -5.4030    2.6450   -0.8030 n         1 MOL     -0.525544
    124 C39        -6.7850    2.2950   -0.3300 c3        1 MOL      0.174653
    125 C40        -6.9360    0.8190   -0.0830 c         1 MOL      0.685465
    126 O19        -7.4560    0.3650    0.9510 o         1 MOL     -0.567253
    127 C41        -7.8930    2.7560   -1.3550 c3        1 MOL     -0.102746
    128 C42        -9.3120    2.3290   -0.9850 ca        1 MOL      0.017877
    129 C43        -9.8900    2.7340    0.2340 ca        1 MOL     -0.192864
    130 C44       -10.0060    1.4670   -1.7870 ca        1 MOL     -0.192864
    131 C45       -11.1760    2.2920    0.5430 ca        1 MOL     -0.202561
    132 C46       -11.2720    1.0140   -1.4810 ca        1 MOL     -0.202561
    133 C47       -11.9050    1.4380   -0.2990 ca        1 MOL      0.340193
    134 O20       -13.1360    0.9390   -0.0040 oh        1 MOL     -0.566531
    135 H56        -5.3590    3.0750   -1.7140 hn        1 MOL      0.292508
    136 H57        -7.0680    2.8090    0.5870 h1        1 MOL      0.026460
    137 H58        -7.5860    2.3460   -2.3170 hc        1 MOL      0.050923
    138 H59        -7.8680    3.8330   -1.5230 hc        1 MOL      0.050923
    139 H60        -9.3680    3.2630    1.0070 ha        1 MOL      0.147847
    140 H61        -9.5140    1.0840   -2.6630 ha        1 MOL      0.147847
    141 H62       -11.5810    2.5930    1.5040 ha        1 MOL      0.123582
    142 H63       -11.7930    0.3190   -2.1300 ha        1 MOL      0.123582
    143 H64       -13.4550    0.1970   -0.5240 ho        1 MOL      0.406566
    144 N13        -6.3040   -0.0430   -0.9530 n         1 MOL     -0.493874
    145 C48        -6.5670   -1.5330   -0.8880 c3        1 MOL     -0.000383
    146 C49        -5.8200   -2.1790    0.2320 c         1 MOL      0.362983
    147 O21        -6.3110   -3.0770    0.9360 o         1 MOL     -0.530352
    148 C50        -6.1960   -2.1840   -2.1880 c3        1 MOL      0.045228
    149 C51        -6.8860   -3.5550   -2.3550 c3        1 MOL     -0.160513
    150 C52        -6.6060   -4.1460   -3.6530 c         1 MOL      0.695284
    151 O22        -7.5430   -4.2470   -4.4850 o         1 MOL     -0.750428
    152 O23        -5.4420   -4.5830   -3.9220 o         1 MOL     -0.750428
    153 H65        -5.8420    0.2730   -1.7860 hn        1 MOL      0.244862
    154 H66        -7.6280   -1.7440   -0.7610 h1        1 MOL      0.083971
    155 H67        -5.1200   -2.2770   -2.0410 hc        1 MOL     -0.003543
    156 H68        -6.5540   -1.5840   -3.0280 hc        1 MOL     -0.003543
    157 H69        -7.9470   -3.3050   -2.3170 hc        1 MOL      0.017565
    158 H70        -6.6610   -4.2580   -1.5460 hc        1 MOL      0.017565
    159 N14        -4.6310   -1.6310    0.5780 n         1 MOL     -0.084968
    160 C53        -3.7770   -1.9460    1.6930 c3        1 MOL     -0.080890
    161 C54        -4.3690   -1.4160    3.0370 c         1 MOL      0.416596
    162 O24        -4.2890   -2.1390    4.0220 o         1 MOL     -0.571567
    163 C55        -2.3980   -1.3340    1.3800 c3        1 MOL      0.228005
    164 C56        -1.5250   -1.9520    0.2700 c3        1 MOL     -0.587938
    165 C57        -0.2630   -1.0690    0.1050 c         1 MOL      1.008684
    166 O25         0.9120   -1.5470    0.2700 o         1 MOL     -0.911949
    167 O26        -0.3380    0.1440   -0.2070 o         1 MOL     -0.911949
    168 H71        -4.3590   -0.8080    0.0540 hn        1 MOL      0.285038
    169 H72        -3.5050   -2.9980    1.7640 h1        1 MOL      0.092124
    170 H73        -1.8660   -1.4640    2.3150 hc        1 MOL     -0.001780
    171 H74        -2.5470   -0.3010    1.0710 hc        1 MOL     -0.001780
    172 H75        -1.9860   -1.9450   -0.7250 hc        1 MOL      0.131107
    173 H76        -1.1500   -2.8850    0.6950 hc        1 MOL      0.131107
    174 N15        -5.0180   -0.3070    2.9990 n         1 MOL      0.119229
    175 C58        -5.7730    0.2440    4.1160 c3        1 MOL     -0.414922
    176 H77        -6.7110   -0.3000    4.2230 h1        1 MOL      0.128216
    177 H78        -5.1910    0.1460    5.0320 h1        1 MOL      0.128216
    178 H79        -5.9840    1.2970    3.9290 h1        1 MOL      0.128216
    179 H80        -4.9220    0.2570    2.1660 hn        1 MOL     -0.071582
    180 Ca1         2.4360    0.1340   -1.0550 Ca        1 MOL      1.786525
    181 O27         1.6850    2.5700   -2.4720 oh        1 MOL     -0.833616
    182 H81         1.9510    2.2450   -3.3310 ho        1 MOL      0.389033
    183 H82         2.1580    3.3950   -2.3690 ho        1 MOL      0.389033
    184 O28         1.0500   -0.9170   -3.1680 oh        1 MOL     -0.833616
    185 H83         0.3130   -1.5230   -3.3060 ho        1 MOL      0.389033
    186 H84         1.8220   -1.4220   -3.3950 ho        1 MOL      0.389033
@<TRIPOS>BOND
     1    1    2 1   
     2    1    4 1   
     3    1    5 1   
     4    1    6 1   
     5    2    3 2   
     6    2    7 1   
     7    7    8 1   
     8    7   15 1   
     9    8    9 1   
    10    8   11 1   
    11    8   16 1   
    12    9   10 2   
    13    9   19 1   
    14   11   12 1   
    15   11   17 1   
    16   11   18 1   
    17   12   13 1   
    18   12   14 1   
    19   19   20 1   
    20   19   27 1   
    21   20   21 1   
    22   20   23 1   
    23   20   28 1   
    24   21   22 2   
    25   21   38 1   
    26   23   24 1   
    27   23   25 1   
    28   23   29 1   
    29   24   26 1   
    30   24   30 1   
    31   24   31 1   
    32   25   32 1   
    33   25   33 1   
    34   25   34 1   
    35   26   35 1   
    36   26   36 1   
    37   26   37 1   
    38   38   39 1   
    39   38   46 1   
    40   39   40 1   
    41   39   42 1   
    42   39   47 1   
    43   40   41 2   
    44   40   50 1   
    45   42   43 1   
    46   42   48 1   
    47   42   49 1   
    48   43   44 1   
    49   43   45 1   
    50   50   51 1   
    51   50   54 1   
    52   51   52 1   
    53   51   55 1   
    54   51   56 1   
    55   52   53 2   
    56   52   57 1   
    57   57   58 1   
    58   57   65 1   
    59   58   59 1   
    60   58   61 1   
    61   58   66 1   
    62   59   60 2   
    63   59   69 1   
    64   61   62 1   
    65   61   67 1   
    66   61   68 1   
    67   62   63 1   
    68   62   64 1   
    69   69   70 1   
    70   69   73 1   
    71   70   71 1   
    72   70   74 1   
    73   70   75 1   
    74   71   72 2   
    75   71   76 1   
    76   76   77 1   
    77   76   85 1   
    78   77   78 1   
    79   77   80 1   
    80   77   86 1   
    81   78   79 2   
    82   78   93 1   
    83   80   81 1   
    84   80   87 1   
    85   80   88 1   
    86   81   82 1   
    87   81   89 1   
    88   81   90 1   
    89   82   83 1   
    90   82   84 2   
    91   83   91 1   
    92   83   92 1   
    93   93   94 1   
    94   93  100 1   
    95   94   95 1   
    96   94   97 1   
    97   94  101 1   
    98   95   96 2   
    99   95  109 1   
   100   97   98 1   
   101   97   99 1   
   102   97  102 1   
   103   98  103 1   
   104   98  104 1   
   105   98  105 1   
   106   99  106 1   
   107   99  107 1   
   108   99  108 1   
   109  109  110 1   
   110  109  117 1   
   111  110  111 1   
   112  110  113 1   
   113  110  118 1   
   114  111  112 2   
   115  111  123 1   
   116  113  114 1   
   117  113  119 1   
   118  113  120 1   
   119  114  115 1   
   120  114  116 2   
   121  115  121 1   
   122  115  122 1   
   123  123  124 1   
   124  123  135 1   
   125  124  125 1   
   126  124  127 1   
   127  124  136 1   
   128  125  126 2   
   129  125  144 1   
   130  127  128 1   
   131  127  137 1   
   132  127  138 1   
   133  128  129 ar  
   134  128  130 ar  
   135  129  131 ar  
   136  129  139 1   
   137  130  132 ar  
   138  130  140 1   
   139  131  133 ar  
   140  131  141 1   
   141  132  133 ar  
   142  132  142 1   
   143  133  134 1   
   144  134  143 1   
   145  144  145 1   
   146  144  153 1   
   147  145  146 1   
   148  145  148 1   
   149  145  154 1   
   150  146  147 2   
   151  146  159 1   
   152  148  149 1   
   153  148  155 1   
   154  148  156 1   
   155  149  150 1   
   156  149  157 1   
   157  149  158 1   
   158  150  151 1   
   159  150  152 1   
   160  159  160 1   
   161  159  168 1   
   162  160  161 1   
   163  160  163 1   
   164  160  169 1   
   165  161  162 2   
   166  161  174 1   
   167  163  164 1   
   168  163  170 1   
   169  163  171 1   
   170  164  165 1   
   171  164  172 1   
   172  164  173 1   
   173  165  166 1   
   174  165  167 1   
   175  174  175 1   
   176  174  179 1   
   177  175  176 1   
   178  175  177 1   
   179  175  178 1   
   180  181  182 1   
   181  181  183 1   
   182  184  185 1   
   183  184  186 1   
@<TRIPOS>SUBSTRUCTURE
     1 MOL         1 TEMP              0 ****  ****    0 ROOT
