@<TRIPOS>MOLECULE
MOL
  179   176     1     0     0
SMALL
resp


@<TRIPOS>ATOM
      1 C1         -1.3050   -3.1500    5.8710 c3        1 MOL     -0.212000
      2 C2         -0.8960   -2.5950    4.5150 c         1 MOL      0.767402
      3 O1         -1.7910   -2.2520    3.7230 o         1 MOL     -0.604864
      4 H1         -0.9010   -2.5140    6.6590 hc        1 MOL      0.052662
      5 H2         -2.3920   -3.1710    5.9430 hc        1 MOL      0.052662
      6 H3         -0.9130   -4.1610    5.9840 hc        1 MOL      0.052662
      7 N1          0.4420   -2.4830    4.1850 n         1 MOL     -0.663160
      8 C3          0.8710   -2.4280    2.8150 c3        1 MOL      0.149197
      9 C4          0.8470   -3.8520    2.2670 c         1 MOL      0.514668
     10 O2          1.3690   -4.7690    2.8770 o         1 MOL     -0.558797
     11 C5          2.3000   -1.8780    2.8530 c3        1 MOL     -0.060175
     12 C6          3.1580   -1.6630    1.5650 c         1 MOL      0.654636
     13 O3          2.6850   -2.0170    0.4490 o         1 MOL     -0.645914
     14 O4          4.3230   -1.1930    1.6670 o         1 MOL     -0.645914
     15 H4          1.1490   -2.5160    4.8990 hn        1 MOL      0.333355
     16 H5          0.3320   -1.6810    2.2280 h1        1 MOL     -0.041921
     17 H6          2.8030   -2.6250    3.4630 hc        1 MOL      0.006873
     18 H7          2.2150   -0.9460    3.4040 hc        1 MOL      0.006873
     19 N2          0.2470   -4.0000    1.1310 n         1 MOL     -0.099642
     20 C7          0.0450   -5.3630    0.5870 c3        1 MOL     -0.332471
     21 C8          1.3580   -5.8850   -0.0390 c         1 MOL      0.698881
     22 O5          1.4660   -7.0920   -0.2800 o         1 MOL     -0.576309
     23 C9         -0.9940   -5.2890   -0.5170 c3        1 MOL     -0.033605
     24 C10        -2.3820   -4.9870   -0.1550 c3        1 MOL     -0.081589
     25 C11        -3.5730   -5.0150   -1.1640 c3        1 MOL      0.047605
     26 C12        -4.1370   -6.4800   -1.2640 c3        1 MOL     -0.035119
     27 N3         -5.4260   -6.4470   -1.9990 n4        1 MOL     -0.138940
     28 H8         -0.1390   -3.2220    0.6250 hn        1 MOL      0.188666
     29 H9         -0.2480   -6.0620    1.3690 h1        1 MOL      0.143858
     30 H10        -0.9780   -6.2670   -1.0010 hc        1 MOL      0.051120
     31 H11        -0.7000   -4.5810   -1.3030 hc        1 MOL      0.051120
     32 H12        -2.4470   -4.0040    0.2920 hc        1 MOL      0.061464
     33 H13        -2.6540   -5.5620    0.7300 hc        1 MOL      0.061464
     34 H14        -3.2930   -4.5680   -2.1210 hc        1 MOL      0.009350
     35 H15        -4.3630   -4.4440   -0.6840 hc        1 MOL      0.009350
     36 H16        -4.3980   -6.8830   -0.2910 hx        1 MOL      0.084519
     37 H17        -3.3660   -7.0260   -1.8030 hx        1 MOL      0.084519
     38 H18        -6.0180   -5.6420   -1.9290 hn        1 MOL      0.270079
     39 H19        -5.1490   -6.5090   -2.9740 hn        1 MOL      0.270079
     40 H20        -5.9660   -7.2780   -1.8030 hn        1 MOL      0.270079
     41 N4          2.3350   -5.0040   -0.3780 n         1 MOL     -0.506804
     42 C13         3.3440   -5.2770   -1.3920 c3        1 MOL      0.068565
     43 C14         4.7770   -4.7670   -1.1720 c         1 MOL      0.439081
     44 O6          5.7440   -5.1180   -1.9030 o         1 MOL     -0.528583
     45 C15         2.8440   -4.6380   -2.7020 c3        1 MOL     -0.180897
     46 C16         2.3830   -3.1940   -2.6290 c         1 MOL      0.713673
     47 O7          1.1390   -2.9910   -2.4780 o         1 MOL     -0.755304
     48 O8          3.0980   -2.2030   -2.4810 o         1 MOL     -0.755304
     49 H21         2.0930   -4.0560   -0.1360 hn        1 MOL      0.208795
     50 H22         3.3870   -6.3590   -1.5860 h1        1 MOL      0.113075
     51 H23         2.0300   -5.2690   -3.0790 hc        1 MOL      0.047864
     52 H24         3.6570   -4.6980   -3.4240 hc        1 MOL      0.047864
     53 N5          4.9130   -3.9440   -0.1090 n         1 MOL     -0.287174
     54 C17         6.2170   -3.5520    0.5420 c3        1 MOL     -0.236459
     55 C18         6.8520   -2.3750   -0.1090 c         1 MOL      0.592428
     56 O9          8.0540   -2.2320   -0.1020 o         1 MOL     -0.601449
     57 H25         4.0590   -3.5690    0.2550 hn        1 MOL      0.284503
     58 H26         6.8500   -4.4390    0.4580 h1        1 MOL      0.130952
     59 H27         6.0510   -3.3130    1.5850 h1        1 MOL      0.130952
     60 N6          6.0980   -1.4440   -0.6460 n         1 MOL     -0.189857
     61 C19         6.6110   -0.1440   -1.2780 c3        1 MOL     -0.016341
     62 C20         6.5340    1.0280   -0.2440 c         1 MOL      0.260295
     63 O10         6.9560    2.1850   -0.6150 o         1 MOL     -0.438353
     64 C21         5.8610    0.0630   -2.5730 c3        1 MOL     -0.119093
     65 C22         4.6990    1.0550   -2.5300 c         1 MOL      0.452177
     66 N7          4.6620    2.1320   -3.2800 n         1 MOL     -0.520601
     67 O11         3.7720    0.7610   -1.7630 o         1 MOL     -0.552627
     68 H28         5.1100   -1.4620   -0.4470 hn        1 MOL      0.155308
     69 H29         7.6320   -0.2860   -1.6150 h1        1 MOL      0.145055
     70 H30         5.5020   -0.9080   -2.9180 hc        1 MOL      0.068453
     71 H31         6.6160    0.4020   -3.2810 hc        1 MOL      0.068453
     72 H32         5.3870    2.2580   -3.9740 hn        1 MOL      0.302029
     73 H33         3.7600    2.5700   -3.3830 hn        1 MOL      0.302029
     74 N8          6.0590    0.8660    1.0340 n         1 MOL     -0.189728
     75 C23         6.0150    2.0240    1.9300 c3        1 MOL     -0.162462
     76 C24         4.8190    2.9780    1.8380 c         1 MOL      0.565791
     77 O12         4.9200    4.0520    2.4730 o         1 MOL     -0.552007
     78 H34         5.5730    0.0040    1.2520 hn        1 MOL      0.225867
     79 H35         6.9520    2.5720    1.8330 h1        1 MOL      0.109011
     80 H36         5.9720    1.6670    2.9540 h1        1 MOL      0.109011
     81 N9          3.7980    2.6550    1.0590 n         1 MOL     -0.565833
     82 C25         2.6860    3.5440    0.7840 c3        1 MOL      0.807083
     83 C26         1.3500    2.7310    0.6370 c         1 MOL      0.070040
     84 O13         1.4080    1.6150    0.0900 o         1 MOL     -0.578815
     85 C27         2.8700    4.3900   -0.5180 c3        1 MOL      0.051881
     86 C28         3.9410    5.3930   -0.3880 ca        1 MOL     -0.196995
     87 C29         5.1670    5.1960   -1.0120 ca        1 MOL      0.013228
     88 C30         3.7990    6.5750    0.4160 ca        1 MOL      0.013228
     89 C31         6.2360    6.1040   -0.8450 ca        1 MOL     -0.369200
     90 C32         4.7020    7.6120    0.3950 ca        1 MOL     -0.369200
     91 C33         5.9510    7.3640   -0.2150 ca        1 MOL      0.415284
     92 O14         6.9090    8.2960   -0.0070 oh        1 MOL     -0.494004
     93 H37         3.8000    1.7380    0.6690 hn        1 MOL      0.304873
     94 H38         2.5330    4.1990    1.6430 h1        1 MOL     -0.122272
     95 H39         1.8990    4.8470   -0.6840 hc        1 MOL     -0.029739
     96 H40         3.2120    3.7770   -1.3520 hc        1 MOL     -0.029739
     97 H41         5.2290    4.2640   -1.5700 ha        1 MOL      0.066851
     98 H42         2.8630    6.6950    0.9490 ha        1 MOL      0.066851
     99 H43         7.2760    5.9440   -1.0970 ha        1 MOL      0.175264
    100 H44         4.6170    8.5290    0.9660 ha        1 MOL      0.175264
    101 H45         6.5850    9.1240    0.3630 ho        1 MOL      0.356102
    102 N10         0.1750    3.2340    1.0710 n         1 MOL     -0.279771
    103 C34        -1.1340    2.5860    1.2350 c3        1 MOL     -0.041818
    104 C35        -2.2180    3.6270    0.7070 c         1 MOL      0.413283
    105 O15        -2.4700    4.7140    1.3360 o         1 MOL     -0.491765
    106 C36        -1.3260    1.8620    2.6270 c3        1 MOL     -0.007666
    107 C37        -0.0000    1.2930    3.2330 c3        1 MOL      0.239030
    108 C38        -2.4110    0.7870    2.6000 c3        1 MOL     -0.484887
    109 C39        -0.1990    0.8400    4.6840 c3        1 MOL     -0.103894
    110 H46         0.2410    4.1870    1.3960 hn        1 MOL      0.252562
    111 H47        -1.1410    1.8240    0.4520 h1        1 MOL      0.197590
    112 H48        -1.6530    2.6320    3.3250 hc        1 MOL      0.017297
    113 H49         0.8070    2.0230    3.2410 hc        1 MOL     -0.035234
    114 H50         0.4190    0.5130    2.6010 hc        1 MOL     -0.035234
    115 H51        -2.7330    0.6160    3.6240 hc        1 MOL      0.148564
    116 H52        -3.2370    1.1600    1.9960 hc        1 MOL      0.148564
    117 H53        -2.0520   -0.1080    2.0860 hc        1 MOL      0.148564
    118 H54        -0.3080    1.7370    5.2840 hc        1 MOL      0.016004
    119 H55        -0.9880    0.1310    4.9200 hc        1 MOL      0.016004
    120 H56         0.7280    0.4190    5.0550 hc        1 MOL      0.016004
    121 N11        -2.8860    3.2330   -0.3970 n         1 MOL     -0.329291
    122 C40        -4.1140    3.8440   -0.8650 c3        1 MOL      0.198846
    123 C41        -5.4430    3.5070   -0.0990 c         1 MOL      0.345294
    124 O16        -5.3980    2.5710    0.7040 o         1 MOL     -0.282866
    125 C42        -4.3500    3.8730   -2.3710 c3        1 MOL     -0.000919
    126 O17        -4.0790    2.5470   -2.8420 oh        1 MOL     -0.512853
    127 H57        -2.6330    2.3460   -0.8140 hn        1 MOL      0.286493
    128 H58        -3.9950    4.9110   -0.6650 h1        1 MOL      0.027121
    129 H59        -3.7070    4.5690   -2.9080 h1        1 MOL      0.043874
    130 H60        -5.4080    4.0470   -2.5970 h1        1 MOL      0.043874
    131 H61        -4.4350    2.5430   -3.7350 ho        1 MOL      0.390241
    132 N12        -6.6080    4.1550   -0.3580 n         1 MOL     -0.415351
    133 C43        -7.9600    3.8280    0.1910 c3        1 MOL      0.119497
    134 C44        -8.3460    2.3900   -0.2120 c         1 MOL      0.499707
    135 O18        -8.8680    1.6730    0.6430 o         1 MOL     -0.502711
    136 C45        -9.0110    4.8410   -0.2780 c3        1 MOL     -0.383121
    137 H62        -6.5960    4.8130   -1.1250 hn        1 MOL      0.262517
    138 H63        -7.8770    3.6530    1.2670 h1        1 MOL      0.083453
    139 H64        -9.1100    4.8570   -1.3650 hc        1 MOL      0.121192
    140 H65       -10.0150    4.5870    0.0730 hc        1 MOL      0.121192
    141 H66        -8.7270    5.8440    0.0080 hc        1 MOL      0.121192
    142 N13        -8.1870    1.9640   -1.4940 n         1 MOL     -0.431367
    143 C46        -8.6020    0.6590   -1.8480 c3        1 MOL      0.137257
    144 C47        -7.6220   -0.3650   -1.2990 c         1 MOL      0.386493
    145 O19        -8.0140   -1.4280   -1.0240 o         1 MOL     -0.499304
    146 C48        -8.8110    0.4680   -3.3410 c3        1 MOL     -0.253987
    147 H67        -7.8590    2.5800   -2.2240 hn        1 MOL      0.279640
    148 H68        -9.5400    0.4180   -1.3620 h1        1 MOL      0.089689
    149 H69        -7.8790    0.7230   -3.8530 hc        1 MOL      0.070052
    150 H70        -9.1090   -0.5390   -3.6110 hc        1 MOL      0.070052
    151 H71        -9.6270    1.1310   -3.6410 hc        1 MOL      0.070052
    152 N14        -6.3730    0.0810   -1.0750 n         1 MOL     -0.184715
    153 C49        -5.3510   -0.7390   -0.4630 c3        1 MOL     -0.003717
    154 C50        -5.5860   -0.8650    1.0840 c         1 MOL      0.407017
    155 O20        -5.4280   -1.9950    1.6680 o         1 MOL     -0.546898
    156 C51        -3.9680   -0.2610   -0.7480 c3        1 MOL     -0.005410
    157 C52        -2.8760   -1.3400   -0.5490 c3        1 MOL      0.047867
    158 C53        -1.4580   -0.9330   -0.9180 c         1 MOL      0.755413
    159 O21        -0.5830   -1.2670   -0.1360 o         1 MOL     -0.750678
    160 O22        -1.1340   -0.3330   -1.9820 o         1 MOL     -0.750678
    161 H72        -6.1120    0.9870   -1.4300 hn        1 MOL      0.153450
    162 H73        -5.5440   -1.7510   -0.8170 h1        1 MOL      0.047075
    163 H74        -3.9000    0.6970   -0.2330 hc        1 MOL     -0.091399
    164 H75        -3.9160    0.1160   -1.7720 hc        1 MOL     -0.091399
    165 H76        -3.1870   -2.1720   -1.1810 hc        1 MOL      0.018571
    166 H77        -2.9040   -1.8280    0.4260 hc        1 MOL      0.018571
    167 N15        -6.0620    0.1820    1.8150 n         1 MOL     -0.032531
    168 C54        -6.5910    0.1140    3.1790 c3        1 MOL     -0.324572
    169 H78        -6.0260    0.7900    3.8210 h1        1 MOL      0.120282
    170 H79        -7.6410    0.4080    3.1770 h1        1 MOL      0.120282
    171 H80        -6.5000   -0.9060    3.5550 h1        1 MOL      0.120282
    172 H81        -6.0360    1.0930    1.4010 hn        1 MOL      0.097275
    173 Ca1         1.4340   -0.4110   -1.5570 Ca        1 MOL      1.743287
    174 O23         1.0000   -0.2740   -4.2260 oh        1 MOL     -0.789926
    175 H82         0.5600   -1.0810   -4.4690 ho        1 MOL      0.388065
    176 H83         1.6890   -0.1630   -4.8770 ho        1 MOL      0.388065
    177 O24         0.9880    2.1690   -2.6150 oh        1 MOL     -0.789926
    178 H84         1.6240    2.5900   -3.1950 ho        1 MOL      0.388065
    179 H85         0.1330    2.3820   -2.9930 ho        1 MOL      0.388065
@<TRIPOS>BOND
     1    1    2 1   
     2    1    4 1   
     3    1    5 1   
     4    1    6 1   
     5    2    3 2   
     6    2    7 1   
     7    7    8 1   
     8    7   15 1   
     9    8    9 1   
    10    8   11 1   
    11    8   16 1   
    12    9   10 2   
    13    9   19 1   
    14   11   12 1   
    15   11   17 1   
    16   11   18 1   
    17   12   13 1   
    18   12   14 1   
    19   19   20 1   
    20   19   28 1   
    21   20   21 1   
    22   20   23 1   
    23   20   29 1   
    24   21   22 2   
    25   21   41 1   
    26   23   24 1   
    27   23   30 1   
    28   23   31 1   
    29   24   25 1   
    30   24   32 1   
    31   24   33 1   
    32   25   26 1   
    33   25   34 1   
    34   25   35 1   
    35   26   27 1   
    36   26   36 1   
    37   26   37 1   
    38   27   38 1   
    39   27   39 1   
    40   27   40 1   
    41   41   42 1   
    42   41   49 1   
    43   42   43 1   
    44   42   45 1   
    45   42   50 1   
    46   43   44 2   
    47   43   53 1   
    48   45   46 1   
    49   45   51 1   
    50   45   52 1   
    51   46   47 1   
    52   46   48 1   
    53   53   54 1   
    54   53   57 1   
    55   54   55 1   
    56   54   58 1   
    57   54   59 1   
    58   55   56 2   
    59   55   60 1   
    60   60   61 1   
    61   60   68 1   
    62   61   62 1   
    63   61   64 1   
    64   61   69 1   
    65   62   63 2   
    66   62   74 1   
    67   64   65 1   
    68   64   70 1   
    69   64   71 1   
    70   65   66 1   
    71   65   67 2   
    72   66   72 1   
    73   66   73 1   
    74   74   75 1   
    75   74   78 1   
    76   75   76 1   
    77   75   79 1   
    78   75   80 1   
    79   76   77 2   
    80   76   81 1   
    81   81   82 1   
    82   81   93 1   
    83   82   83 1   
    84   82   85 1   
    85   82   94 1   
    86   83   84 2   
    87   83  102 1   
    88   85   86 1   
    89   85   95 1   
    90   85   96 1   
    91   86   87 ar  
    92   86   88 ar  
    93   87   89 ar  
    94   87   97 1   
    95   88   90 ar  
    96   88   98 1   
    97   89   91 ar  
    98   89   99 1   
    99   90   91 ar  
   100   90  100 1   
   101   91   92 1   
   102   92  101 1   
   103  102  103 1   
   104  102  110 1   
   105  103  104 1   
   106  103  106 1   
   107  103  111 1   
   108  104  105 2   
   109  104  121 1   
   110  106  107 1   
   111  106  108 1   
   112  106  112 1   
   113  107  109 1   
   114  107  113 1   
   115  107  114 1   
   116  108  115 1   
   117  108  116 1   
   118  108  117 1   
   119  109  118 1   
   120  109  119 1   
   121  109  120 1   
   122  121  122 1   
   123  121  127 1   
   124  122  123 1   
   125  122  125 1   
   126  122  128 1   
   127  123  124 2   
   128  123  132 1   
   129  125  126 1   
   130  125  129 1   
   131  125  130 1   
   132  126  131 1   
   133  132  133 1   
   134  132  137 1   
   135  133  134 1   
   136  133  136 1   
   137  133  138 1   
   138  134  135 2   
   139  134  142 1   
   140  136  139 1   
   141  136  140 1   
   142  136  141 1   
   143  142  143 1   
   144  142  147 1   
   145  143  144 1   
   146  143  146 1   
   147  143  148 1   
   148  144  145 2   
   149  144  152 1   
   150  146  149 1   
   151  146  150 1   
   152  146  151 1   
   153  152  153 1   
   154  152  161 1   
   155  153  154 1   
   156  153  156 1   
   157  153  162 1   
   158  154  155 2   
   159  154  167 1   
   160  156  157 1   
   161  156  163 1   
   162  156  164 1   
   163  157  158 1   
   164  157  165 1   
   165  157  166 1   
   166  158  159 1   
   167  158  160 1   
   168  167  168 1   
   169  167  172 1   
   170  168  169 1   
   171  168  170 1   
   172  168  171 1   
   173  174  175 1   
   174  174  176 1   
   175  177  178 1   
   176  177  179 1   
@<TRIPOS>SUBSTRUCTURE
     1 MOL         1 TEMP              0 ****  ****    0 ROOT
