@<TRIPOS>MOLECULE
MOL
  189   185     1     0     0
SMALL
resp


@<TRIPOS>ATOM
      1 C1         -0.4330    2.4040    6.0410 c3        1 MOL     -0.397653
      2 C2         -0.6830    2.0510    4.6110 c         1 MOL      0.831063
      3 O1          0.2040    2.2880    3.7960 o         1 MOL     -0.664397
      4 H1          0.2430    3.2580    6.0920 hc        1 MOL      0.093881
      5 H2         -1.3770    2.6590    6.5230 hc        1 MOL      0.093881
      6 H3          0.0180    1.5530    6.5520 hc        1 MOL      0.093881
      7 N1         -1.9270    1.7760    4.2810 n         1 MOL     -0.681230
      8 C3         -2.3370    1.6870    2.9080 c3        1 MOL      0.181786
      9 C4         -2.5890    3.0890    2.2850 c         1 MOL      0.487522
     10 O2         -3.3670    3.8790    2.8180 o         1 MOL     -0.590778
     11 C5         -3.5600    0.8320    2.7280 c3        1 MOL     -0.170419
     12 C6         -3.9960    0.6560    1.2620 c         1 MOL      0.676472
     13 O3         -3.2180    0.8280    0.3010 o         1 MOL     -0.682776
     14 O4         -5.1980    0.5690    1.1010 o         1 MOL     -0.682776
     15 H4         -2.6040    1.6350    5.0210 hn        1 MOL      0.358560
     16 H5         -1.4820    1.2150    2.4310 h1        1 MOL     -0.027084
     17 H6         -4.3630    1.3190    3.2760 hc        1 MOL      0.049223
     18 H7         -3.3100   -0.0470    3.3160 hc        1 MOL      0.049223
     19 N2         -1.9810    3.4140    1.1340 n         1 MOL     -0.001073
     20 C7         -2.0340    4.7020    0.4850 c3        1 MOL     -0.063611
     21 C8         -3.0590    4.8880   -0.6070 c         1 MOL      0.582447
     22 O5         -3.2660    6.0670   -1.0010 o         1 MOL     -0.591539
     23 C9         -0.5910    4.9810   -0.1070 c3        1 MOL      0.091163
     24 C10         0.5470    4.9660    0.8760 c3        1 MOL     -0.143173
     25 C11         0.2790    5.8470    2.1480 c3        1 MOL      0.044352
     26 C12         1.6230    6.0220    2.8500 c3        1 MOL      0.105262
     27 N3          1.3450    6.9500    3.9570 n4        1 MOL     -0.369343
     28 H8         -1.3250    2.7270    0.7850 hn        1 MOL      0.117909
     29 H9         -2.2550    5.5050    1.2000 h1        1 MOL      0.024604
     30 H10        -0.6330    5.9070   -0.6830 hc        1 MOL     -0.009822
     31 H11        -0.4010    4.1810   -0.8340 hc        1 MOL     -0.009822
     32 H12         1.4370    5.2890    0.3290 hc        1 MOL      0.037032
     33 H13         0.7390    3.9310    1.1510 hc        1 MOL      0.037032
     34 H14        -0.5440    5.4590    2.7340 hc        1 MOL      0.008149
     35 H15        -0.0230    6.8280    1.7760 hc        1 MOL      0.008149
     36 H16         2.4230    6.4230    2.2240 hx        1 MOL      0.070001
     37 H17         2.0310    5.0840    3.2240 hx        1 MOL      0.070001
     38 H18         0.9260    6.4940    4.7500 hn        1 MOL      0.316374
     39 H19         2.1640    7.3200    4.4180 hn        1 MOL      0.316374
     40 H20         0.7340    7.6850    3.6400 hn        1 MOL      0.316374
     41 N4         -3.6830    3.8370   -1.0600 n         1 MOL     -0.499741
     42 C13        -4.5080    3.8440   -2.3020 c3        1 MOL      0.062617
     43 C14        -5.7560    2.8960   -2.2660 c         1 MOL      0.465839
     44 O6         -6.3560    2.6580   -3.3660 o         1 MOL     -0.524522
     45 C15        -3.5680    3.7510   -3.5500 c3        1 MOL     -0.140447
     46 C16        -2.6130    2.5750   -3.6050 c         1 MOL      0.830131
     47 O7         -2.7110    1.6140   -2.8060 o         1 MOL     -0.708594
     48 O8         -1.7130    2.5180   -4.4420 o         1 MOL     -0.708594
     49 H21        -3.4480    2.9390   -0.6600 hn        1 MOL      0.213616
     50 H22        -4.8930    4.8520   -2.4230 h1        1 MOL      0.099334
     51 H23        -3.0590    4.6950   -3.7830 hc        1 MOL      0.041236
     52 H24        -4.2370    3.7290   -4.3950 hc        1 MOL      0.041236
     53 N5         -6.1820    2.2770   -1.1490 n         1 MOL     -0.382486
     54 C17        -7.5500    1.7660   -0.9470 c3        1 MOL     -0.195463
     55 C18        -7.8800    0.2850   -1.4380 c         1 MOL      0.474585
     56 O9         -8.9750   -0.2160   -1.4690 o         1 MOL     -0.580363
     57 H25        -5.5430    2.1430   -0.3760 hn        1 MOL      0.320830
     58 H26        -8.3100    2.4480   -1.3500 h1        1 MOL      0.123275
     59 H27        -7.7060    1.7800    0.1300 h1        1 MOL      0.123275
     60 N6         -6.8430   -0.4840   -1.6840 n         1 MOL     -0.092609
     61 C19        -6.8890   -1.8560   -2.1140 c3        1 MOL     -0.097009
     62 C20        -6.9380   -2.7720   -0.9300 c         1 MOL      0.407268
     63 O10        -7.0190   -3.9770   -1.1270 o         1 MOL     -0.538514
     64 C21        -5.7350   -2.1460   -3.1100 c3        1 MOL     -0.176990
     65 C22        -4.3880   -1.6930   -2.5750 c         1 MOL      0.577921
     66 O11        -3.6550   -0.9710   -3.2560 o         1 MOL     -0.630076
     67 O12        -4.0530   -2.0090   -1.4050 o         1 MOL     -0.630076
     68 H28        -5.9270   -0.0870   -1.5530 hn        1 MOL      0.196041
     69 H29        -7.7510   -2.1320   -2.7260 h1        1 MOL      0.132056
     70 H30        -5.8800   -1.5930   -4.0350 hc        1 MOL      0.074953
     71 H31        -5.6740   -3.2260   -3.2530 hc        1 MOL      0.074953
     72 N7         -6.7940   -2.3100    0.2770 n         1 MOL     -0.120949
     73 C23        -6.8080   -3.1270    1.5050 c3        1 MOL     -0.235405
     74 C24        -5.4790   -3.8590    1.7020 c         1 MOL      0.551402
     75 O13        -5.4740   -4.8890    2.4230 o         1 MOL     -0.556341
     76 H32        -6.9310   -1.3090    0.3570 hn        1 MOL      0.214059
     77 H33        -7.6720   -3.7840    1.4450 h1        1 MOL      0.116592
     78 H34        -6.9170   -2.4280    2.3320 h1        1 MOL      0.116592
     79 N8         -4.3640   -3.3390    1.1770 n         1 MOL     -0.314725
     80 C25        -3.1250   -4.0310    1.1380 c3        1 MOL     -0.085834
     81 C26        -1.9000   -3.0170    1.1820 c         1 MOL      0.619168
     82 O14        -2.0310   -1.9490    0.6960 o         1 MOL     -0.621937
     83 C27        -2.9160   -5.0020   -0.0280 c3        1 MOL      0.450349
     84 C28        -3.8050   -6.2800    0.0790 c3        1 MOL     -0.511714
     85 O15        -3.1960   -4.4210   -1.3050 oh        1 MOL     -0.628518
     86 H35        -4.5070   -2.5490    0.5630 hn        1 MOL      0.181888
     87 H36        -2.9310   -4.5790    2.0610 h1        1 MOL      0.059931
     88 H37        -1.8440   -5.2250   -0.0140 h1        1 MOL     -0.043442
     89 H38        -3.6580   -3.5930   -1.1480 ho        1 MOL      0.414973
     90 H39        -4.8300   -5.9570   -0.0890 hc        1 MOL      0.137584
     91 H40        -3.6040   -6.9900   -0.7210 hc        1 MOL      0.137584
     92 H41        -3.6110   -6.6610    1.0810 hc        1 MOL      0.137584
     93 N9         -0.7620   -3.4860    1.6890 n         1 MOL     -0.487995
     94 C29         0.5250   -2.7210    1.7780 c3        1 MOL      0.044272
     95 C30         1.6110   -3.4810    0.9250 c         1 MOL      0.461573
     96 O16         1.7930   -4.6510    1.1720 o         1 MOL     -0.552221
     97 C31         0.9900   -2.6370    3.2740 c3        1 MOL      0.103435
     98 C32        -0.0610   -1.8400    4.0550 c3        1 MOL      0.041349
     99 C33         2.3850   -1.9580    3.3690 c3        1 MOL     -0.253333
    100 C34        -0.2410   -2.3830    5.4890 c3        1 MOL     -0.237399
    101 H42        -0.8060   -4.4420    1.9930 hn        1 MOL      0.276295
    102 H43         0.4020   -1.7310    1.3370 h1        1 MOL      0.090261
    103 H44         1.0540   -3.6480    3.6800 hc        1 MOL      0.030977
    104 H45        -1.0560   -1.9970    3.6410 hc        1 MOL      0.036476
    105 H46         0.0980   -0.7720    4.1500 hc        1 MOL      0.036476
    106 H47         3.1810   -2.5590    2.9370 hc        1 MOL      0.055023
    107 H48         2.1620   -0.9780    2.9540 hc        1 MOL      0.055023
    108 H49         2.7260   -1.9040    4.4070 hc        1 MOL      0.055023
    109 H50        -0.4430   -3.4390    5.3570 hc        1 MOL      0.047537
    110 H51         0.6440   -2.1570    6.0800 hc        1 MOL      0.047537
    111 H52        -1.0690   -1.8690    5.9810 hc        1 MOL      0.047537
    112 N10         2.3500   -2.7580    0.1240 n         1 MOL     -0.035065
    113 C35         3.5220   -3.0760   -0.7170 c3        1 MOL     -0.037444
    114 C36         4.8980   -2.6980   -0.0840 c         1 MOL      0.314526
    115 O17         4.8970   -1.8990    0.8960 o         1 MOL     -0.328547
    116 C37         3.4480   -2.4490   -2.0580 c3        1 MOL      0.239019
    117 C38         2.2620   -3.0210   -2.8680 c3        1 MOL     -0.198462
    118 O18         3.2900   -1.0320   -1.9000 oh        1 MOL     -0.542802
    119 H53         2.0060   -1.8120    0.1730 hn        1 MOL     -0.037647
    120 H54         3.6130   -4.1580   -0.8710 h1        1 MOL      0.061691
    121 H55         4.3440   -2.6040   -2.6440 h1        1 MOL      0.042370
    122 H56         2.5840   -0.8550   -1.2800 ho        1 MOL      0.356904
    123 H57         1.6300   -3.6510   -2.2500 hc        1 MOL      0.066866
    124 H58         1.7190   -2.1520   -3.2450 hc        1 MOL      0.066866
    125 H59         2.5570   -3.6690   -3.6950 hc        1 MOL      0.066866
    126 N11         6.0500   -3.2370   -0.5520 n         1 MOL     -0.215564
    127 C39         7.4280   -2.9380   -0.0480 c3        1 MOL     -0.407531
    128 C40         7.6560   -1.4540   -0.1930 c         1 MOL      0.624606
    129 O19         8.2880   -0.9270    0.7340 o         1 MOL     -0.531365
    130 C41         8.4970   -3.7080   -0.8200 c3        1 MOL      0.358135
    131 C42         8.4760   -5.1730   -0.4300 c3        1 MOL     -0.374905
    132 O20         8.2810   -3.5760   -2.1810 oh        1 MOL     -0.637837
    133 H60         5.9350   -3.9690   -1.2340 hn        1 MOL      0.263284
    134 H61         7.3770   -3.2500    0.9880 h1        1 MOL      0.229638
    135 H62         9.4700   -3.2410   -0.6420 h1        1 MOL      0.036358
    136 H63         9.0680   -3.9310   -2.6020 ho        1 MOL      0.421350
    137 H64         7.4250   -5.4580   -0.4270 hc        1 MOL      0.108890
    138 H65         8.9610   -5.7830   -1.1870 hc        1 MOL      0.108890
    139 H66         8.8350   -5.3460    0.5880 hc        1 MOL      0.108890
    140 N12         7.1310   -0.8110   -1.1800 n         1 MOL     -0.425951
    141 C43         6.9220    0.6090   -1.3530 c3        1 MOL      0.002961
    142 C44         6.2790    1.3450   -0.2040 c         1 MOL      0.308986
    143 O21         6.7990    2.2670    0.4260 o         1 MOL     -0.491140
    144 C45         6.2270    0.8490   -2.6650 c3        1 MOL     -0.039753
    145 C46         5.9700    2.2960   -3.0140 c3        1 MOL     -0.064145
    146 C47         7.2010    3.1980   -3.3690 c3        1 MOL      0.002298
    147 C48         8.0430    2.7220   -4.5670 c3        1 MOL      0.048800
    148 N13         8.8600    3.8310   -5.1130 n4        1 MOL     -0.318147
    149 H67         6.6440   -1.4920   -1.7430 hn        1 MOL      0.261106
    150 H68         7.9200    1.0420   -1.3790 h1        1 MOL      0.096827
    151 H69         5.2990    0.2780   -2.6650 hc        1 MOL      0.043765
    152 H70         6.7420    0.3440   -3.4900 hc        1 MOL      0.043765
    153 H71         5.4910    2.7480   -2.1430 hc        1 MOL      0.055354
    154 H72         5.2840    2.3710   -3.8590 hc        1 MOL      0.055354
    155 H73         7.8470    3.2620   -2.4980 hc        1 MOL      0.028021
    156 H74         6.7490    4.1860   -3.4480 hc        1 MOL      0.028021
    157 H75         7.4390    2.2810   -5.3570 hx        1 MOL      0.069803
    158 H76         8.6710    1.9550   -4.1040 hx        1 MOL      0.069803
    159 H77         9.5870    4.1680   -4.4840 hn        1 MOL      0.288413
    160 H78         9.3190    3.5150   -5.9450 hn        1 MOL      0.288413
    161 H79         8.3240    4.6300   -5.4260 hn        1 MOL      0.288413
    162 N14         5.0710    0.8870    0.0850 n         1 MOL      0.062844
    163 C49         4.2350    1.4740    1.1130 c3        1 MOL     -0.227568
    164 C50         4.8470    1.1910    2.5430 c         1 MOL      0.436981
    165 O22         4.6830    1.9980    3.4530 o         1 MOL     -0.573317
    166 C51         2.8270    0.9820    1.0440 c3        1 MOL      0.042183
    167 C52         2.0330    1.6510   -0.0980 c3        1 MOL      0.036230
    168 C53         0.6290    1.0560   -0.2740 c         1 MOL      0.582075
    169 O23         0.4950   -0.1940   -0.3640 o         1 MOL     -0.618137
    170 O24        -0.4320    1.6920   -0.4710 o         1 MOL     -0.618137
    171 H80         4.7410    0.0510   -0.3650 hn        1 MOL     -0.027093
    172 H81         4.2640    2.5540    0.9390 h1        1 MOL      0.098731
    173 H82         2.3340    1.2500    1.9750 hc        1 MOL      0.070422
    174 H83         2.9500   -0.0590    0.7530 hc        1 MOL      0.070422
    175 H84         2.5360    1.4920   -1.0550 hc        1 MOL     -0.013901
    176 H85         2.0230    2.7250    0.0700 hc        1 MOL     -0.013901
    177 N15         5.5510    0.1110    2.7070 n         1 MOL      0.014947
    178 C54         6.1430   -0.3690    3.9730 c3        1 MOL     -0.272646
    179 H86         7.0130    0.2390    4.2190 h1        1 MOL      0.105157
    180 H87         5.4060   -0.2890    4.7720 h1        1 MOL      0.105157
    181 H88         6.4460   -1.4100    3.8600 h1        1 MOL      0.105157
    182 H89         5.5600   -0.4740    1.8840 hn        1 MOL      0.069688
    183 Ca1        -1.8930   -0.3870   -1.3780 Ca        1 MOL      1.688781
    184 O25        -0.2570    0.2240   -3.5610 oh        1 MOL     -0.860236
    185 H90        -0.6820    1.0620   -3.7600 ho        1 MOL      0.395465
    186 H91         0.4790    0.1750   -4.1730 ho        1 MOL      0.395465
    187 O26        -1.1500   -2.8810   -2.2260 oh        1 MOL     -0.860236
    188 H92        -1.9140   -3.3930   -1.9560 ho        1 MOL      0.395465
    189 H93        -0.8990   -3.2480   -3.0800 ho        1 MOL      0.395465
@<TRIPOS>BOND
     1    1    2 1   
     2    1    4 1   
     3    1    5 1   
     4    1    6 1   
     5    2    3 2   
     6    2    7 1   
     7    7    8 1   
     8    7   15 1   
     9    8    9 1   
    10    8   11 1   
    11    8   16 1   
    12    9   10 2   
    13    9   19 1   
    14   11   12 1   
    15   11   17 1   
    16   11   18 1   
    17   12   13 1   
    18   12   14 1   
    19   19   20 1   
    20   19   28 1   
    21   20   21 1   
    22   20   23 1   
    23   20   29 1   
    24   21   22 2   
    25   21   41 1   
    26   23   24 1   
    27   23   30 1   
    28   23   31 1   
    29   24   25 1   
    30   24   32 1   
    31   24   33 1   
    32   25   26 1   
    33   25   34 1   
    34   25   35 1   
    35   26   27 1   
    36   26   36 1   
    37   26   37 1   
    38   27   38 1   
    39   27   39 1   
    40   27   40 1   
    41   41   42 1   
    42   41   49 1   
    43   42   43 1   
    44   42   45 1   
    45   42   50 1   
    46   43   44 2   
    47   43   53 1   
    48   45   46 1   
    49   45   51 1   
    50   45   52 1   
    51   46   47 1   
    52   46   48 1   
    53   53   54 1   
    54   53   57 1   
    55   54   55 1   
    56   54   58 1   
    57   54   59 1   
    58   55   56 2   
    59   55   60 1   
    60   60   61 1   
    61   60   68 1   
    62   61   62 1   
    63   61   64 1   
    64   61   69 1   
    65   62   63 2   
    66   62   72 1   
    67   64   65 1   
    68   64   70 1   
    69   64   71 1   
    70   65   66 1   
    71   65   67 1   
    72   72   73 1   
    73   72   76 1   
    74   73   74 1   
    75   73   77 1   
    76   73   78 1   
    77   74   75 2   
    78   74   79 1   
    79   79   80 1   
    80   79   86 1   
    81   80   81 1   
    82   80   83 1   
    83   80   87 1   
    84   81   82 2   
    85   81   93 1   
    86   83   84 1   
    87   83   85 1   
    88   83   88 1   
    89   84   90 1   
    90   84   91 1   
    91   84   92 1   
    92   85   89 1   
    93   93   94 1   
    94   93  101 1   
    95   94   95 1   
    96   94   97 1   
    97   94  102 1   
    98   95   96 2   
    99   95  112 1   
   100   97   98 1   
   101   97   99 1   
   102   97  103 1   
   103   98  100 1   
   104   98  104 1   
   105   98  105 1   
   106   99  106 1   
   107   99  107 1   
   108   99  108 1   
   109  100  109 1   
   110  100  110 1   
   111  100  111 1   
   112  112  113 1   
   113  112  119 1   
   114  113  114 1   
   115  113  116 1   
   116  113  120 1   
   117  114  115 2   
   118  114  126 1   
   119  116  117 1   
   120  116  118 1   
   121  116  121 1   
   122  117  123 1   
   123  117  124 1   
   124  117  125 1   
   125  118  122 1   
   126  126  127 1   
   127  126  133 1   
   128  127  128 1   
   129  127  130 1   
   130  127  134 1   
   131  128  129 2   
   132  128  140 1   
   133  130  131 1   
   134  130  132 1   
   135  130  135 1   
   136  131  137 1   
   137  131  138 1   
   138  131  139 1   
   139  132  136 1   
   140  140  141 1   
   141  140  149 1   
   142  141  142 1   
   143  141  144 1   
   144  141  150 1   
   145  142  143 2   
   146  142  162 1   
   147  144  145 1   
   148  144  151 1   
   149  144  152 1   
   150  145  146 1   
   151  145  153 1   
   152  145  154 1   
   153  146  147 1   
   154  146  155 1   
   155  146  156 1   
   156  147  148 1   
   157  147  157 1   
   158  147  158 1   
   159  148  159 1   
   160  148  160 1   
   161  148  161 1   
   162  162  163 1   
   163  162  171 1   
   164  163  164 1   
   165  163  166 1   
   166  163  172 1   
   167  164  165 2   
   168  164  177 1   
   169  166  167 1   
   170  166  173 1   
   171  166  174 1   
   172  167  168 1   
   173  167  175 1   
   174  167  176 1   
   175  168  169 1   
   176  168  170 1   
   177  177  178 1   
   178  177  182 1   
   179  178  179 1   
   180  178  180 1   
   181  178  181 1   
   182  184  185 1   
   183  184  186 1   
   184  187  188 1   
   185  187  189 1   
@<TRIPOS>SUBSTRUCTURE
     1 MOL         1 TEMP              0 ****  ****    0 ROOT
