@<TRIPOS>MOLECULE
MOL
  189   185     1     0     0
SMALL
resp


@<TRIPOS>ATOM
      1 C1          0.0460   -3.2290    6.2790 c3        1 MOL     -0.349346
      2 C2          0.8290   -2.8530    5.0050 c         1 MOL      0.752254
      3 O1          0.9880   -1.6680    4.7880 o         1 MOL     -0.621373
      4 H1         -0.6820   -4.0050    6.0420 hc        1 MOL      0.082559
      5 H2          0.7380   -3.6000    7.0350 hc        1 MOL      0.082559
      6 H3         -0.4720   -2.3490    6.6600 hc        1 MOL      0.082559
      7 N1          1.3510   -3.7860    4.2830 n         1 MOL     -0.624140
      8 C3          2.1320   -3.5190    3.0960 c3        1 MOL      0.468097
      9 C4          1.9440   -4.7360    2.0980 c         1 MOL      0.355492
     10 O2          1.8280   -5.9040    2.4390 o         1 MOL     -0.583484
     11 C5          3.5640   -3.1510    3.4590 c3        1 MOL     -0.402784
     12 C6          4.3240   -2.5380    2.2650 c         1 MOL      0.828232
     13 O3          5.5570   -2.3450    2.3610 o         1 MOL     -0.711287
     14 O4          3.7480   -2.1500    1.2080 o         1 MOL     -0.711287
     15 H4          1.2010   -4.7740    4.4270 hn        1 MOL      0.285702
     16 H5          1.6740   -2.7170    2.5270 h1        1 MOL     -0.004289
     17 H6          4.1240   -4.0480    3.7290 hc        1 MOL      0.086235
     18 H7          3.6510   -2.4470    4.2840 hc        1 MOL      0.086235
     19 N2          2.1300   -4.5200    0.8140 n         1 MOL      0.034211
     20 C7          2.2520   -5.5320   -0.2650 c3        1 MOL     -0.097893
     21 C8          3.4900   -5.3650   -1.0860 c         1 MOL      0.546032
     22 O5          4.0790   -6.3850   -1.4590 o         1 MOL     -0.615764
     23 C9          0.9630   -5.5330   -1.0800 c3        1 MOL      0.177051
     24 C10         0.8090   -6.8960   -1.8170 c3        1 MOL     -0.036345
     25 C11         0.7280   -4.3960   -2.0940 c3        1 MOL     -0.270178
     26 C12        -0.4800   -7.0040   -2.6720 c3        1 MOL     -0.194368
     27 H8          2.3360   -3.5820    0.4900 hn        1 MOL     -0.231240
     28 H9          2.2200   -6.4960    0.2500 h1        1 MOL      0.075962
     29 H10         0.1440   -5.5450   -0.3560 hc        1 MOL      0.013491
     30 H11         0.8880   -7.7710   -1.1630 hc        1 MOL      0.012484
     31 H12         1.6910   -7.0410   -2.4430 hc        1 MOL      0.012484
     32 H13         1.5370   -4.4380   -2.8220 hc        1 MOL      0.073095
     33 H14        -0.2930   -4.5320   -2.4640 hc        1 MOL      0.073095
     34 H15         0.8100   -3.4260   -1.6170 hc        1 MOL      0.073095
     35 H16        -1.3910   -6.7050   -2.1600 hc        1 MOL      0.041531
     36 H17        -0.4650   -6.4280   -3.6020 hc        1 MOL      0.041531
     37 H18        -0.5490   -8.0180   -3.0600 hc        1 MOL      0.041531
     38 N3          3.8980   -4.1290   -1.3190 n         1 MOL     -0.235837
     39 C13         4.9870   -3.7940   -2.3220 c3        1 MOL     -0.049477
     40 C14         6.3180   -3.1230   -1.7900 c         1 MOL      0.289617
     41 O6          7.2420   -2.9930   -2.6380 o         1 MOL     -0.510274
     42 C15         4.3380   -2.9780   -3.4800 c3        1 MOL     -0.185090
     43 C16         3.4580   -1.7500   -3.1560 c         1 MOL      0.706317
     44 O7          3.3770   -1.4150   -1.9540 o         1 MOL     -0.704484
     45 O8          2.8600   -1.1750   -4.1170 o         1 MOL     -0.704484
     46 H19         3.4090   -3.3380   -0.9390 hn        1 MOL      0.333672
     47 H20         5.2850   -4.6700   -2.8920 h1        1 MOL      0.112402
     48 H21         3.7770   -3.6940   -4.0890 hc        1 MOL      0.046341
     49 H22         5.1660   -2.5980   -4.0880 hc        1 MOL      0.046341
     50 N4          6.3340   -2.6350   -0.5760 n         1 MOL     -0.029996
     51 C17         7.5570   -2.0010   -0.1050 c3        1 MOL     -0.152243
     52 C18         7.8970   -0.6150   -0.8010 c         1 MOL      0.414525
     53 O9          9.0970   -0.3040   -0.9450 o         1 MOL     -0.600434
     54 H23         5.5090   -2.6520    0.0120 hn        1 MOL      0.085657
     55 H24         8.3830   -2.6880   -0.3000 h1        1 MOL      0.089486
     56 H25         7.4690   -1.8410    0.9740 h1        1 MOL      0.089486
     57 N5          7.0180    0.1600   -1.2920 n         1 MOL     -0.188488
     58 C19         7.3430    1.5490   -1.8330 c3        1 MOL      0.004688
     59 C20         7.3560    2.5780   -0.7480 c         1 MOL      0.498445
     60 O10         8.1970    3.4460   -0.8160 o         1 MOL     -0.561157
     61 C21         6.1600    1.9330   -2.8350 c3        1 MOL     -0.415094
     62 C22         4.6750    1.7640   -2.3500 c         1 MOL      0.826540
     63 O11         4.4350    1.2440   -1.2990 o         1 MOL     -0.704644
     64 O12         3.8240    2.3750   -3.0490 o         1 MOL     -0.704644
     65 H26         6.0400   -0.0640   -1.1880 hn        1 MOL      0.300133
     66 H27         8.2390    1.5720   -2.4590 h1        1 MOL      0.119787
     67 H28         6.2750    1.4730   -3.8160 hc        1 MOL      0.106921
     68 H29         6.3990    3.0010   -2.9020 hc        1 MOL      0.106921
     69 N6          6.5300    2.4470    0.2970 n         1 MOL     -0.189878
     70 C23         6.4940    3.4620    1.3710 c3        1 MOL     -0.224174
     71 C24         5.3380    4.4340    1.3950 c         1 MOL      0.484939
     72 O13         5.3530    5.5440    1.9580 o         1 MOL     -0.584990
     73 H30         5.7680    1.7980    0.1650 hn        1 MOL      0.087920
     74 H31         7.4140    4.0070    1.1710 h1        1 MOL      0.112653
     75 H32         6.6100    2.8850    2.2910 h1        1 MOL      0.112653
     76 N7          4.3320    3.9790    0.7270 n         1 MOL     -0.131476
     77 C25         3.0640    4.6420    0.8390 c3        1 MOL     -0.155317
     78 C26         1.9420    3.6540    0.9950 c         1 MOL      0.494807
     79 O14         2.0210    2.5220    0.5730 o         1 MOL     -0.453728
     80 C27         2.7480    5.5390   -0.3890 c3        1 MOL     -0.022408
     81 C28         3.6630    6.8520   -0.3400 c3        1 MOL     -0.261712
     82 C29         3.1700    7.9290   -1.3560 c         1 MOL      0.644117
     83 N8          3.3190    7.6760   -2.6740 n         1 MOL     -0.840303
     84 O15         2.6000    8.9050   -0.9690 o         1 MOL     -0.559130
     85 H33         4.4190    3.0750    0.2850 hn        1 MOL      0.221428
     86 H34         2.9880    5.3900    1.6370 h1        1 MOL      0.111032
     87 H35         1.7170    5.8640   -0.2650 hc        1 MOL      0.065271
     88 H36         2.8850    5.0090   -1.3350 hc        1 MOL      0.065271
     89 H37         4.7180    6.6630   -0.5370 hc        1 MOL      0.103570
     90 H38         3.5930    7.3320    0.6390 hc        1 MOL      0.103570
     91 H39         3.8940    6.9010   -2.9570 hn        1 MOL      0.376227
     92 H40         2.8740    8.2840   -3.3480 hn        1 MOL      0.376227
     93 N9          0.8430    4.0250    1.6570 n         1 MOL     -0.444575
     94 C30        -0.3310    3.1590    1.8330 c3        1 MOL     -0.044951
     95 C31        -1.2720    3.4220    0.7000 c         1 MOL      0.515975
     96 O16        -1.6980    4.5970    0.5210 o         1 MOL     -0.592193
     97 C32        -0.9210    3.3830    3.2480 c3        1 MOL      0.162552
     98 C33        -2.1650    2.5930    3.5620 c3        1 MOL     -0.139347
     99 C34         0.0810    2.8710    4.3180 c3        1 MOL     -0.139347
    100 H41         0.7470    4.9850    1.9750 hn        1 MOL      0.289676
    101 H42         0.0920    2.1600    1.7970 h1        1 MOL      0.089517
    102 H43        -1.0780    4.4450    3.4760 hc        1 MOL      0.004558
    103 H44        -1.8970    1.5430    3.6770 hc        1 MOL      0.025041
    104 H45        -2.5220    3.0020    4.5180 hc        1 MOL      0.025041
    105 H46        -2.9700    2.8230    2.8730 hc        1 MOL      0.025041
    106 H47         1.0330    3.3970    4.3480 hc        1 MOL      0.025041
    107 H48        -0.2980    3.1120    5.3150 hc        1 MOL      0.025041
    108 H49         0.2250    1.7980    4.3670 hc        1 MOL      0.025041
    109 N10        -1.5370    2.4230   -0.1420 n         1 MOL     -0.330269
    110 C35        -2.6870    2.5350   -1.1070 c3        1 MOL      0.239449
    111 C36        -4.0230    2.1350   -0.3570 c         1 MOL     -0.019632
    112 O17        -3.8750    1.4990    0.6800 o         1 MOL     -0.028020
    113 C37        -2.3920    1.5920   -2.2770 c3        1 MOL     -0.126252
    114 C38        -3.5230    1.2850   -3.2450 c         1 MOL      0.534459
    115 N11        -3.9780    2.2860   -3.9710 n         1 MOL     -0.681605
    116 O18        -4.0200    0.1820   -3.3670 o         1 MOL     -0.466261
    117 H50        -1.0930    1.5280    0.0230 hn        1 MOL      0.167133
    118 H51        -2.6820    3.5510   -1.5040 h1        1 MOL      0.029007
    119 H52        -2.0160    0.6600   -1.8430 hc        1 MOL      0.059182
    120 H53        -1.5610    2.0530   -2.7950 hc        1 MOL      0.059182
    121 H54        -3.5850    3.2140   -3.9480 hn        1 MOL      0.325739
    122 H55        -4.7410    2.1030   -4.6090 hn        1 MOL      0.325739
    123 N12        -5.1910    2.3850   -0.9470 n         1 MOL     -0.124305
    124 C39        -6.4680    1.9590   -0.5100 c3        1 MOL      0.000341
    125 C40        -6.5160    0.4620   -0.1740 c         1 MOL      0.633838
    126 O19        -6.9270    0.1390    0.9360 o         1 MOL     -0.605939
    127 C41        -7.5230    2.2900   -1.6000 c3        1 MOL      0.032612
    128 C42        -8.9180    2.0390   -1.1340 ca        1 MOL     -0.190571
    129 C43        -9.4610    2.9260   -0.1570 ca        1 MOL      0.064717
    130 C44        -9.6030    0.8630   -1.4810 ca        1 MOL      0.064717
    131 C45       -10.7730    2.6880    0.3340 ca        1 MOL     -0.448276
    132 C46       -10.9000    0.6650   -0.9920 ca        1 MOL     -0.448276
    133 C47       -11.4270    1.4900   -0.0150 ca        1 MOL      0.542637
    134 O20       -12.7060    1.2250    0.4550 oh        1 MOL     -0.622636
    135 H56        -5.2490    2.9390   -1.7810 hn        1 MOL      0.141934
    136 H57        -6.7830    2.5600    0.3460 h1        1 MOL      0.035007
    137 H58        -7.2480    1.6330   -2.4310 hc        1 MOL      0.012364
    138 H59        -7.5170    3.3060   -1.9650 hc        1 MOL      0.012364
    139 H60        -8.9080    3.8000    0.1590 ha        1 MOL      0.068533
    140 H61        -9.0800    0.1190   -2.0630 ha        1 MOL      0.068533
    141 H62       -11.2150    3.3410    1.0770 ha        1 MOL      0.180117
    142 H63       -11.3870   -0.2530   -1.2570 ha        1 MOL      0.180117
    143 H64       -13.0860    0.5070   -0.0640 ho        1 MOL      0.411756
    144 N13        -6.0880   -0.4490   -1.0370 n         1 MOL     -0.130020
    145 C48        -6.1310   -1.8880   -0.7400 c3        1 MOL     -0.116210
    146 C49        -5.3020   -2.2840    0.4890 c         1 MOL      0.246369
    147 O21        -5.4120   -3.4260    0.9270 o         1 MOL     -0.510148
    148 C50        -5.6300   -2.6370   -1.9860 c3        1 MOL      0.022726
    149 C51        -6.4250   -2.4320   -3.3090 c3        1 MOL     -0.245545
    150 C52        -7.9470   -2.8110   -3.2020 c         1 MOL      0.572583
    151 O22        -8.8120   -1.9060   -3.1850 o         1 MOL     -0.666789
    152 O23        -8.2870   -3.9970   -2.9170 o         1 MOL     -0.666789
    153 H65        -5.8730   -0.1310   -1.9730 hn        1 MOL      0.155376
    154 H66        -7.1820   -2.1410   -0.5910 h1        1 MOL      0.191171
    155 H67        -5.6820   -3.6800   -1.6690 hc        1 MOL      0.042746
    156 H68        -4.6230   -2.2950   -2.2190 hc        1 MOL      0.042746
    157 H69        -5.9360   -3.0890   -4.0260 hc        1 MOL      0.036288
    158 H70        -6.2280   -1.4250   -3.6550 hc        1 MOL      0.036288
    159 N14        -4.4450   -1.4310    1.0060 n         1 MOL      0.130764
    160 C53        -3.5620   -1.7130    2.1290 c3        1 MOL      0.041648
    161 C54        -4.1480   -1.0400    3.4020 c         1 MOL      0.381414
    162 O24        -4.2080   -1.6190    4.4770 o         1 MOL     -0.548065
    163 C55        -2.1200   -1.1980    1.8250 c3        1 MOL     -0.170750
    164 C56        -1.5120   -2.0100    0.6510 c3        1 MOL      0.008390
    165 C57        -0.1410   -1.3990    0.4160 c         1 MOL      0.876799
    166 O25         0.9590   -2.0550    0.5080 o         1 MOL     -0.786980
    167 O26        -0.0800   -0.2540   -0.1120 o         1 MOL     -0.786980
    168 H71        -4.3700   -0.5040    0.5910 hn        1 MOL     -0.096001
    169 H72        -3.5010   -2.7680    2.3970 h1        1 MOL      0.056940
    170 H73        -1.5690   -1.3440    2.7500 hc        1 MOL      0.073345
    171 H74        -2.1080   -0.1250    1.6420 hc        1 MOL      0.073345
    172 H75        -2.1010   -1.9260   -0.2680 hc        1 MOL      0.000195
    173 H76        -1.5050   -3.0660    0.9250 hc        1 MOL      0.000195
    174 N15        -4.7230    0.2010    3.2110 n         1 MOL      0.048729
    175 C58        -5.5250    0.9820    4.1890 c3        1 MOL     -0.161849
    176 H77        -6.3560    0.3730    4.5430 h1        1 MOL      0.061848
    177 H78        -4.8960    1.2650    5.0330 h1        1 MOL      0.061848
    178 H79        -5.9120    1.8810    3.7070 h1        1 MOL      0.061848
    179 H80        -4.5970    0.5220    2.2660 hn        1 MOL     -0.102381
    180 Ca1         2.5210    0.1360    0.0170 Ca        1 MOL      1.791063
    181 O27         2.0910    0.1160    2.8400 oh        1 MOL     -0.927205
    182 H81         2.6340    0.6700    3.4050 ho        1 MOL      0.427779
    183 H82         1.6980   -0.5090    3.4370 ho        1 MOL      0.427779
    184 O28         1.6200    1.3160   -2.2570 oh        1 MOL     -0.927205
    185 H83         1.0340    1.0690   -2.9760 ho        1 MOL      0.427779
    186 H84         2.3620    1.7400   -2.6980 ho        1 MOL      0.427779
    187 O29         4.8080    0.5130    1.5140 oh        1 MOL     -0.927205
    188 H85         5.1650   -0.3740    1.5530 ho        1 MOL      0.427779
    189 H86         5.0670    0.8990    2.3600 ho        1 MOL      0.427779
@<TRIPOS>BOND
     1    1    2 1   
     2    1    4 1   
     3    1    5 1   
     4    1    6 1   
     5    2    3 2   
     6    2    7 1   
     7    7    8 1   
     8    7   15 1   
     9    8    9 1   
    10    8   11 1   
    11    8   16 1   
    12    9   10 2   
    13    9   19 1   
    14   11   12 1   
    15   11   17 1   
    16   11   18 1   
    17   12   13 1   
    18   12   14 1   
    19   19   20 1   
    20   19   27 1   
    21   20   21 1   
    22   20   23 1   
    23   20   28 1   
    24   21   22 2   
    25   21   38 1   
    26   23   24 1   
    27   23   25 1   
    28   23   29 1   
    29   24   26 1   
    30   24   30 1   
    31   24   31 1   
    32   25   32 1   
    33   25   33 1   
    34   25   34 1   
    35   26   35 1   
    36   26   36 1   
    37   26   37 1   
    38   38   39 1   
    39   38   46 1   
    40   39   40 1   
    41   39   42 1   
    42   39   47 1   
    43   40   41 2   
    44   40   50 1   
    45   42   43 1   
    46   42   48 1   
    47   42   49 1   
    48   43   44 1   
    49   43   45 1   
    50   50   51 1   
    51   50   54 1   
    52   51   52 1   
    53   51   55 1   
    54   51   56 1   
    55   52   53 2   
    56   52   57 1   
    57   57   58 1   
    58   57   65 1   
    59   58   59 1   
    60   58   61 1   
    61   58   66 1   
    62   59   60 2   
    63   59   69 1   
    64   61   62 1   
    65   61   67 1   
    66   61   68 1   
    67   62   63 1   
    68   62   64 1   
    69   69   70 1   
    70   69   73 1   
    71   70   71 1   
    72   70   74 1   
    73   70   75 1   
    74   71   72 2   
    75   71   76 1   
    76   76   77 1   
    77   76   85 1   
    78   77   78 1   
    79   77   80 1   
    80   77   86 1   
    81   78   79 2   
    82   78   93 1   
    83   80   81 1   
    84   80   87 1   
    85   80   88 1   
    86   81   82 1   
    87   81   89 1   
    88   81   90 1   
    89   82   83 1   
    90   82   84 2   
    91   83   91 1   
    92   83   92 1   
    93   93   94 1   
    94   93  100 1   
    95   94   95 1   
    96   94   97 1   
    97   94  101 1   
    98   95   96 2   
    99   95  109 1   
   100   97   98 1   
   101   97   99 1   
   102   97  102 1   
   103   98  103 1   
   104   98  104 1   
   105   98  105 1   
   106   99  106 1   
   107   99  107 1   
   108   99  108 1   
   109  109  110 1   
   110  109  117 1   
   111  110  111 1   
   112  110  113 1   
   113  110  118 1   
   114  111  112 2   
   115  111  123 1   
   116  113  114 1   
   117  113  119 1   
   118  113  120 1   
   119  114  115 1   
   120  114  116 2   
   121  115  121 1   
   122  115  122 1   
   123  123  124 1   
   124  123  135 1   
   125  124  125 1   
   126  124  127 1   
   127  124  136 1   
   128  125  126 2   
   129  125  144 1   
   130  127  128 1   
   131  127  137 1   
   132  127  138 1   
   133  128  129 ar  
   134  128  130 ar  
   135  129  131 ar  
   136  129  139 1   
   137  130  132 ar  
   138  130  140 1   
   139  131  133 ar  
   140  131  141 1   
   141  132  133 ar  
   142  132  142 1   
   143  133  134 1   
   144  134  143 1   
   145  144  145 1   
   146  144  153 1   
   147  145  146 1   
   148  145  148 1   
   149  145  154 1   
   150  146  147 2   
   151  146  159 1   
   152  148  149 1   
   153  148  155 1   
   154  148  156 1   
   155  149  150 1   
   156  149  157 1   
   157  149  158 1   
   158  150  151 1   
   159  150  152 1   
   160  159  160 1   
   161  159  168 1   
   162  160  161 1   
   163  160  163 1   
   164  160  169 1   
   165  161  162 2   
   166  161  174 1   
   167  163  164 1   
   168  163  170 1   
   169  163  171 1   
   170  164  165 1   
   171  164  172 1   
   172  164  173 1   
   173  165  166 1   
   174  165  167 1   
   175  174  175 1   
   176  174  179 1   
   177  175  176 1   
   178  175  177 1   
   179  175  178 1   
   180  181  182 1   
   181  181  183 1   
   182  184  185 1   
   183  184  186 1   
   184  187  188 1   
   185  187  189 1   
@<TRIPOS>SUBSTRUCTURE
     1 MOL         1 TEMP              0 ****  ****    0 ROOT
