@<TRIPOS>MOLECULE
MOL
  189   185     1     0     0
SMALL
resp


@<TRIPOS>ATOM
      1 C1          0.2770   -4.1380    5.8600 c3        1 MOL     -0.436937
      2 C2          1.0940   -3.4410    4.7050 c         1 MOL      0.687283
      3 O1          1.1170   -2.2400    4.5030 o         1 MOL     -0.589071
      4 H1         -0.2520   -3.3810    6.4380 hc        1 MOL      0.120185
      5 H2         -0.4430   -4.8320    5.4280 hc        1 MOL      0.120185
      6 H3          0.9600   -4.6810    6.5120 hc        1 MOL      0.120185
      7 N1          1.6020   -4.2900    3.7860 n         1 MOL     -0.600132
      8 C3          2.1200   -3.8790    2.4230 c3        1 MOL      0.282615
      9 C4          2.0550   -4.9510    1.3270 c         1 MOL      0.386936
     10 O2          2.1920   -6.1460    1.5950 o         1 MOL     -0.570528
     11 C5          3.6000   -3.5750    2.5490 c3        1 MOL     -0.269820
     12 C6          4.2870   -2.9240    1.4190 c         1 MOL      0.839203
     13 O3          5.4940   -2.7290    1.5540 o         1 MOL     -0.701475
     14 O4          3.6220   -2.4850    0.4050 o         1 MOL     -0.701475
     15 H4          1.6190   -5.2630    4.0680 hn        1 MOL      0.302411
     16 H5          1.5470   -3.0090    2.0860 h1        1 MOL      0.039188
     17 H6          4.1590   -4.4960    2.6920 hc        1 MOL      0.046100
     18 H7          3.7950   -2.9080    3.3910 hc        1 MOL      0.046100
     19 N2          1.7480   -4.5260    0.1070 n         1 MOL     -0.093968
     20 C7          1.5360   -5.3690   -1.0600 c3        1 MOL     -0.109839
     21 C8          2.6890   -5.2550   -2.0280 c         1 MOL      0.657419
     22 O5          3.1920   -6.2730   -2.5990 o         1 MOL     -0.612223
     23 C9          0.1060   -5.1280   -1.6100 c3        1 MOL      0.536658
     24 C10        -0.8920   -5.2930   -0.4890 c3        1 MOL     -0.026124
     25 C11        -0.1670   -6.0080   -2.8940 c3        1 MOL     -0.436643
     26 C12        -2.3230   -5.0340   -0.9210 c3        1 MOL     -0.236070
     27 H8          1.5030   -3.5460    0.0660 hn        1 MOL      0.028761
     28 H9          1.4590   -6.4320   -0.8200 h1        1 MOL      0.024884
     29 H10         0.0720   -4.1020   -1.9680 hc        1 MOL     -0.082681
     30 H11        -0.7250   -4.6280    0.3550 hc        1 MOL     -0.021870
     31 H12        -0.7400   -6.3550   -0.2440 hc        1 MOL     -0.021870
     32 H13        -1.0360   -5.5830   -3.4060 hc        1 MOL      0.083136
     33 H14         0.6810   -5.8510   -3.5580 hc        1 MOL      0.083136
     34 H15        -0.1980   -7.0450   -2.5690 hc        1 MOL      0.083136
     35 H16        -2.9900   -4.8160   -0.0890 hc        1 MOL      0.056652
     36 H17        -2.2830   -4.1180   -1.5130 hc        1 MOL      0.056652
     37 H18        -2.6550   -5.8860   -1.4980 hc        1 MOL      0.056652
     38 N3          3.2410   -4.0150   -2.1460 n         1 MOL     -0.625255
     39 C13         4.0740   -3.6500   -3.3140 c3        1 MOL      0.276726
     40 C14         5.4840   -3.1660   -3.0030 c         1 MOL      0.377717
     41 O6          6.2930   -3.1330   -3.9200 o         1 MOL     -0.557519
     42 C15         3.2850   -2.6400   -4.0470 c3        1 MOL     -0.401767
     43 C16         2.6890   -1.5090   -3.2030 c         1 MOL      0.792731
     44 O7          3.3560   -1.0890   -2.2260 o         1 MOL     -0.705619
     45 O8          1.5450   -1.0160   -3.4620 o         1 MOL     -0.705619
     46 H19         3.0350   -3.2120   -1.5780 hn        1 MOL      0.337527
     47 H20         4.2620   -4.4890   -3.9840 h1        1 MOL      0.053944
     48 H21         2.4920   -3.1600   -4.5670 hc        1 MOL      0.087667
     49 H22         4.0140   -2.2120   -4.7400 hc        1 MOL      0.087667
     50 N4          5.7960   -2.8410   -1.7100 n         1 MOL     -0.108178
     51 C17         7.1180   -2.3720   -1.3480 c3        1 MOL     -0.297186
     52 C18         7.3020   -0.7850   -1.4730 c         1 MOL      0.613924
     53 O9          8.3880   -0.3420   -1.2930 o         1 MOL     -0.619339
     54 H23         5.0560   -2.7810   -1.0330 hn        1 MOL      0.080481
     55 H24         7.8210   -2.9090   -1.9780 h1        1 MOL      0.129251
     56 H25         7.2310   -2.6600   -0.3060 h1        1 MOL      0.129251
     57 N5          6.3110    0.0870   -1.7690 n         1 MOL     -0.167561
     58 C19         6.5660    1.4740   -2.1980 c3        1 MOL     -0.090855
     59 C20         6.9470    2.4790   -1.0480 c         1 MOL      0.413032
     60 O10         7.2670    3.6830   -1.2750 o         1 MOL     -0.591136
     61 C21         5.3040    2.0590   -2.9670 c3        1 MOL     -0.337748
     62 C22         4.0080    2.0240   -2.2180 c         1 MOL      0.954706
     63 O11         3.8790    1.6800   -1.0270 o         1 MOL     -0.765822
     64 O12         3.0210    2.3620   -2.9370 o         1 MOL     -0.765822
     65 H26         5.3660   -0.2590   -1.8190 hn        1 MOL      0.136011
     66 H27         7.3960    1.4890   -2.9120 h1        1 MOL      0.093896
     67 H28         5.1310    1.4910   -3.8830 hc        1 MOL      0.097966
     68 H29         5.4520    3.1110   -3.2090 hc        1 MOL      0.097966
     69 N6          6.7840    2.0320    0.1400 n         1 MOL     -0.130179
     70 C23         6.9280    2.6730    1.4970 c3        1 MOL     -0.455437
     71 C24         5.7140    3.5020    1.9000 c         1 MOL      0.650699
     72 O13         5.8060    4.1130    2.9630 o         1 MOL     -0.605848
     73 H30         6.5920    1.0480    0.2290 hn        1 MOL      0.268238
     74 H31         7.7530    3.3860    1.4350 h1        1 MOL      0.175759
     75 H32         7.0080    1.8110    2.1640 h1        1 MOL      0.175759
     76 N7          4.6480    3.5670    1.1000 n         1 MOL     -0.217432
     77 C25         3.4000    4.2220    1.3750 c3        1 MOL     -0.072070
     78 C26         2.2090    3.3020    1.6520 c         1 MOL      0.417158
     79 O14         2.3420    2.0900    1.4820 o         1 MOL     -0.460912
     80 C27         3.0500    5.1590    0.1300 c3        1 MOL      0.098889
     81 C28         4.1420    6.2360   -0.0060 c3        1 MOL     -0.139139
     82 C29         3.6960    7.3710   -0.8810 c         1 MOL      0.580448
     83 N8          4.1240    7.4860   -2.0910 n         1 MOL     -0.685266
     84 O15         2.8710    8.1800   -0.4380 o         1 MOL     -0.590274
     85 H33         4.5350    3.0190    0.2610 hn        1 MOL      0.210806
     86 H34         3.4560    4.8730    2.2430 h1        1 MOL      0.084951
     87 H35         2.0880    5.6440    0.2830 hc        1 MOL      0.010511
     88 H36         3.1040    4.5950   -0.7970 hc        1 MOL      0.010511
     89 H37         5.0140    5.7160   -0.4090 hc        1 MOL      0.028250
     90 H38         4.3770    6.6490    0.9810 hc        1 MOL      0.028250
     91 H39         4.9470    6.9640   -2.3600 hn        1 MOL      0.334387
     92 H40         3.7670    8.2410   -2.6700 hn        1 MOL      0.334387
     93 N9          1.0370    3.7750    2.0620 n         1 MOL     -0.418811
     94 C30        -0.1230    2.9330    2.3900 c3        1 MOL      0.037041
     95 C31        -1.2390    3.2650    1.4070 c         1 MOL      0.385198
     96 O16        -1.6210    4.4190    1.2630 o         1 MOL     -0.555863
     97 C32        -0.5390    3.1100    3.8770 c3        1 MOL      0.397609
     98 C33        -1.7460    2.1380    4.1720 c3        1 MOL     -0.282524
     99 C34         0.5800    2.8880    4.8560 c3        1 MOL     -0.282524
    100 H41         0.9090    4.7750    1.9920 hn        1 MOL      0.267548
    101 H42         0.0720    1.8620    2.2840 h1        1 MOL      0.075026
    102 H43        -0.8980    4.1270    4.0140 hc        1 MOL     -0.082350
    103 H44        -1.4850    1.0990    4.0260 hc        1 MOL      0.048299
    104 H45        -2.1080    2.3350    5.1760 hc        1 MOL      0.048299
    105 H46        -2.5260    2.4050    3.4670 hc        1 MOL      0.048299
    106 H47         0.8870    1.8480    4.7650 hc        1 MOL      0.048299
    107 H48         1.4170    3.5620    4.6820 hc        1 MOL      0.048299
    108 H49         0.1700    3.0550    5.8450 hc        1 MOL      0.048299
    109 N10        -1.7700    2.2500    0.6900 n         1 MOL     -0.040441
    110 C35        -2.8610    2.4700   -0.2740 c3        1 MOL      0.022037
    111 C36        -4.2340    2.3360    0.4400 c         1 MOL      0.133661
    112 O17        -4.3710    1.6660    1.4790 o         1 MOL     -0.209554
    113 C37        -2.7220    1.4450   -1.3400 c3        1 MOL     -0.369986
    114 C38        -3.8430    1.5130   -2.3430 c         1 MOL      0.803987
    115 N11        -3.7410    2.3250   -3.3750 n         1 MOL     -0.838497
    116 O18        -4.8680    0.8090   -2.2800 o         1 MOL     -0.687860
    117 H50        -1.2190    1.4040    0.7140 hn        1 MOL      0.108895
    118 H51        -2.7330    3.4000   -0.8220 h1        1 MOL      0.084625
    119 H52        -2.6280    0.4520   -0.8900 hc        1 MOL      0.137503
    120 H53        -1.8330    1.6650   -1.9400 hc        1 MOL      0.137503
    121 H54        -2.8650    2.7620   -3.6200 hn        1 MOL      0.382109
    122 H55        -4.5310    2.3670   -4.0020 hn        1 MOL      0.382109
    123 N12        -5.3270    3.0030    0.0150 n         1 MOL     -0.279989
    124 C39        -6.7240    2.7100    0.5750 c3        1 MOL      0.204113
    125 C40        -7.0360    1.1760    0.8780 c         1 MOL      0.041508
    126 O19        -7.7970    0.8630    1.8030 o         1 MOL     -0.464311
    127 C41        -7.7070    3.3180   -0.4740 c3        1 MOL     -0.315644
    128 C42        -7.5480    2.9550   -1.9230 ca        1 MOL     -0.080244
    129 C43        -6.8850    3.8880   -2.7950 ca        1 MOL     -0.027197
    130 C44        -8.0770    1.7370   -2.4610 ca        1 MOL     -0.027197
    131 C45        -6.6820    3.5610   -4.1670 ca        1 MOL     -0.402909
    132 C46        -7.8440    1.4150   -3.8110 ca        1 MOL     -0.402909
    133 C47        -7.0930    2.2560   -4.6410 ca        1 MOL      0.464820
    134 O20        -6.7990    1.9150   -5.9590 oh        1 MOL     -0.585150
    135 H56        -5.2860    3.6310   -0.7750 hn        1 MOL      0.200190
    136 H57        -6.8570    3.3380    1.4590 h1        1 MOL      0.049107
    137 H58        -7.7910    4.3880   -0.3110 hc        1 MOL      0.114667
    138 H59        -8.6310    2.8300   -0.1720 hc        1 MOL      0.114667
    139 H60        -6.5820    4.8740   -2.4700 ha        1 MOL      0.105788
    140 H61        -8.5790    1.1200   -1.7310 ha        1 MOL      0.105788
    141 H62        -6.2800    4.2620   -4.8810 ha        1 MOL      0.175500
    142 H63        -8.2090    0.4550   -4.1600 ha        1 MOL      0.175500
    143 H64        -7.2140    1.0730   -6.1330 ho        1 MOL      0.422119
    144 N13        -6.5680    0.2920   -0.0520 n         1 MOL      0.169051
    145 C48        -6.7330   -1.1120    0.0740 c3        1 MOL     -0.323944
    146 C49        -5.8590   -1.6450    1.2140 c         1 MOL      0.452898
    147 O21        -6.1170   -2.6520    1.8270 o         1 MOL     -0.486065
    148 C50        -6.4190   -1.7820   -1.2880 c3        1 MOL      0.113801
    149 C51        -6.5840   -3.2290   -1.3510 c3        1 MOL     -0.293449
    150 C52        -8.1160   -3.5210   -1.4880 c         1 MOL      0.709358
    151 O22        -8.7320   -3.1600   -2.5120 o         1 MOL     -0.733524
    152 O23        -8.6600   -4.1890   -0.5930 o         1 MOL     -0.733524
    153 H65        -6.1340    0.6570   -0.8830 hn        1 MOL      0.567117
    154 H66        -7.7640   -1.2950    0.3840 h1        1 MOL      0.153560
    155 H67        -5.3890   -1.5470   -1.5390 hc        1 MOL     -0.029659
    156 H68        -7.1160   -1.3520   -2.0150 hc        1 MOL     -0.029659
    157 H69        -6.2220   -3.6800   -0.4280 hc        1 MOL      0.053810
    158 H70        -5.9960   -3.6520   -2.1650 hc        1 MOL      0.053810
    159 N14        -4.6530   -1.0850    1.4410 n         1 MOL     -0.027183
    160 C53        -3.6880   -1.4200    2.4900 c3        1 MOL     -0.025336
    161 C54        -4.1150   -0.8960    3.8970 c         1 MOL      0.350818
    162 O24        -4.3450   -1.6910    4.8310 o         1 MOL     -0.531156
    163 C55        -2.2670   -1.0050    2.1830 c3        1 MOL      0.038548
    164 C56        -1.4250   -1.9140    1.2690 c3        1 MOL     -0.121075
    165 C57        -0.2030   -1.1790    0.6370 c         1 MOL      0.657639
    166 O25         0.5220   -1.8790   -0.1160 o         1 MOL     -0.641369
    167 O26         0.0760    0.0180    0.8820 o         1 MOL     -0.641369
    168 H71        -4.4360   -0.2820    0.8730 hn        1 MOL     -0.156820
    169 H72        -3.7120   -2.5120    2.5040 h1        1 MOL      0.049352
    170 H73        -1.7030   -1.0200    3.1140 hc        1 MOL      0.019263
    171 H74        -2.1940    0.0070    1.8010 hc        1 MOL      0.019263
    172 H75        -2.0280   -2.2560    0.4250 hc        1 MOL      0.071025
    173 H76        -1.1090   -2.7650    1.8650 hc        1 MOL      0.071025
    174 N15        -4.5060    0.3970    3.9240 n         1 MOL      0.008867
    175 C58        -4.9880    1.0880    5.1430 c3        1 MOL     -0.166751
    176 H77        -4.6310    2.1180    5.1410 h1        1 MOL      0.059474
    177 H78        -6.0770    1.0820    5.1570 h1        1 MOL      0.059474
    178 H79        -4.6090    0.5750    6.0260 h1        1 MOL      0.059474
    179 H80        -4.3630    0.9930    3.1230 hn        1 MOL      0.046249
    180 Ca1         2.5380   -0.0910    0.1390 Ca        1 MOL      1.702159
    181 O27         2.5750   -0.5890    2.9880 oh        1 MOL     -0.941593
    182 H81         1.9220   -1.1660    3.4010 ho        1 MOL      0.432490
    183 H82         3.1810   -0.3730    3.6900 ho        1 MOL      0.432490
    184 O28         5.1940   -0.0940    1.6650 oh        1 MOL     -0.941593
    185 H83         5.4880   -0.9890    1.4730 ho        1 MOL      0.432490
    186 H84         4.7550   -0.1730    2.5100 ho        1 MOL      0.432490
    187 O29         1.1120    1.1670   -1.6790 oh        1 MOL     -0.941593
    188 H85         1.0480    0.5480   -2.4010 ho        1 MOL      0.432490
    189 H86         1.7520    1.8140   -1.9670 ho        1 MOL      0.432490
@<TRIPOS>BOND
     1    1    2 1   
     2    1    4 1   
     3    1    5 1   
     4    1    6 1   
     5    2    3 2   
     6    2    7 1   
     7    7    8 1   
     8    7   15 1   
     9    8    9 1   
    10    8   11 1   
    11    8   16 1   
    12    9   10 2   
    13    9   19 1   
    14   11   12 1   
    15   11   17 1   
    16   11   18 1   
    17   12   13 1   
    18   12   14 1   
    19   19   20 1   
    20   19   27 1   
    21   20   21 1   
    22   20   23 1   
    23   20   28 1   
    24   21   22 2   
    25   21   38 1   
    26   23   24 1   
    27   23   25 1   
    28   23   29 1   
    29   24   26 1   
    30   24   30 1   
    31   24   31 1   
    32   25   32 1   
    33   25   33 1   
    34   25   34 1   
    35   26   35 1   
    36   26   36 1   
    37   26   37 1   
    38   38   39 1   
    39   38   46 1   
    40   39   40 1   
    41   39   42 1   
    42   39   47 1   
    43   40   41 2   
    44   40   50 1   
    45   42   43 1   
    46   42   48 1   
    47   42   49 1   
    48   43   44 1   
    49   43   45 1   
    50   50   51 1   
    51   50   54 1   
    52   51   52 1   
    53   51   55 1   
    54   51   56 1   
    55   52   53 2   
    56   52   57 1   
    57   57   58 1   
    58   57   65 1   
    59   58   59 1   
    60   58   61 1   
    61   58   66 1   
    62   59   60 2   
    63   59   69 1   
    64   61   62 1   
    65   61   67 1   
    66   61   68 1   
    67   62   63 1   
    68   62   64 1   
    69   69   70 1   
    70   69   73 1   
    71   70   71 1   
    72   70   74 1   
    73   70   75 1   
    74   71   72 2   
    75   71   76 1   
    76   76   77 1   
    77   76   85 1   
    78   77   78 1   
    79   77   80 1   
    80   77   86 1   
    81   78   79 2   
    82   78   93 1   
    83   80   81 1   
    84   80   87 1   
    85   80   88 1   
    86   81   82 1   
    87   81   89 1   
    88   81   90 1   
    89   82   83 1   
    90   82   84 2   
    91   83   91 1   
    92   83   92 1   
    93   93   94 1   
    94   93  100 1   
    95   94   95 1   
    96   94   97 1   
    97   94  101 1   
    98   95   96 2   
    99   95  109 1   
   100   97   98 1   
   101   97   99 1   
   102   97  102 1   
   103   98  103 1   
   104   98  104 1   
   105   98  105 1   
   106   99  106 1   
   107   99  107 1   
   108   99  108 1   
   109  109  110 1   
   110  109  117 1   
   111  110  111 1   
   112  110  113 1   
   113  110  118 1   
   114  111  112 2   
   115  111  123 1   
   116  113  114 1   
   117  113  119 1   
   118  113  120 1   
   119  114  115 1   
   120  114  116 2   
   121  115  121 1   
   122  115  122 1   
   123  123  124 1   
   124  123  135 1   
   125  124  125 1   
   126  124  127 1   
   127  124  136 1   
   128  125  126 2   
   129  125  144 1   
   130  127  128 1   
   131  127  137 1   
   132  127  138 1   
   133  128  129 ar  
   134  128  130 ar  
   135  129  131 ar  
   136  129  139 1   
   137  130  132 ar  
   138  130  140 1   
   139  131  133 ar  
   140  131  141 1   
   141  132  133 ar  
   142  132  142 1   
   143  133  134 1   
   144  134  143 1   
   145  144  145 1   
   146  144  153 1   
   147  145  146 1   
   148  145  148 1   
   149  145  154 1   
   150  146  147 2   
   151  146  159 1   
   152  148  149 1   
   153  148  155 1   
   154  148  156 1   
   155  149  150 1   
   156  149  157 1   
   157  149  158 1   
   158  150  151 1   
   159  150  152 1   
   160  159  160 1   
   161  159  168 1   
   162  160  161 1   
   163  160  163 1   
   164  160  169 1   
   165  161  162 2   
   166  161  174 1   
   167  163  164 1   
   168  163  170 1   
   169  163  171 1   
   170  164  165 1   
   171  164  172 1   
   172  164  173 1   
   173  165  166 1   
   174  165  167 1   
   175  174  175 1   
   176  174  179 1   
   177  175  176 1   
   178  175  177 1   
   179  175  178 1   
   180  181  182 1   
   181  181  183 1   
   182  184  185 1   
   183  184  186 1   
   184  187  188 1   
   185  187  189 1   
@<TRIPOS>SUBSTRUCTURE
     1 MOL         1 TEMP              0 ****  ****    0 ROOT
