@<TRIPOS>MOLECULE
MOL
  189   185     1     0     0
SMALL
resp


@<TRIPOS>ATOM
      1 C1          0.1660   -4.2070    5.9900 c3        1 MOL     -0.364230
      2 C2          0.7800   -3.5470    4.7390 c         1 MOL      0.707326
      3 O1          0.9320   -2.3280    4.6760 o         1 MOL     -0.583997
      4 H1          0.9380   -4.3350    6.7490 hc        1 MOL      0.088368
      5 H2         -0.6270   -3.5730    6.3840 hc        1 MOL      0.088368
      6 H3         -0.2460   -5.1810    5.7230 hc        1 MOL      0.088368
      7 N1          1.0230   -4.4300    3.7580 n         1 MOL     -0.543718
      8 C3          1.6700   -4.1530    2.4550 c3        1 MOL      0.231959
      9 C4          1.3020   -5.1590    1.4290 c         1 MOL      0.597480
     10 O2          1.2760   -6.3580    1.7380 o         1 MOL     -0.623362
     11 C5          3.2470   -4.1720    2.5540 c3        1 MOL     -0.310701
     12 C6          3.9390   -3.4430    1.3780 c         1 MOL      0.747477
     13 O3          5.1930   -3.5460    1.2790 o         1 MOL     -0.663235
     14 O4          3.3130   -2.7370    0.5290 o         1 MOL     -0.663235
     15 H4          0.9170   -5.4080    4.0190 hn        1 MOL      0.289470
     16 H5          1.3730   -3.1570    2.1490 h1        1 MOL      0.033784
     17 H6          3.5120   -5.2310    2.5640 hc        1 MOL      0.067630
     18 H7          3.5820   -3.7580    3.5060 hc        1 MOL      0.067630
     19 N2          0.9860   -4.7010    0.2290 n         1 MOL     -0.394073
     20 C7          0.7570   -5.4660   -0.9890 c3        1 MOL     -0.009184
     21 C8          1.6940   -5.1430   -2.2140 c         1 MOL      0.558231
     22 O5          1.8590   -6.1090   -3.0040 o         1 MOL     -0.578469
     23 C9         -0.7310   -5.2890   -1.2790 c3        1 MOL      0.108201
     24 C10        -1.5880   -6.0250   -0.2620 c3        1 MOL      0.040801
     25 C11        -1.0890   -5.8420   -2.6370 c3        1 MOL     -0.277052
     26 C12        -3.0450   -5.5320   -0.2320 c3        1 MOL     -0.162335
     27 H8          1.0290   -3.6950    0.2010 hn        1 MOL      0.196300
     28 H9          0.8590   -6.5380   -0.8060 h1        1 MOL      0.075618
     29 H10        -1.0050   -4.2360   -1.1820 hc        1 MOL      0.039273
     30 H11        -1.2160   -5.7690    0.7240 hc        1 MOL     -0.008590
     31 H12        -1.5120   -7.1070   -0.3540 hc        1 MOL     -0.008590
     32 H13        -0.8180   -6.8740   -2.8510 hc        1 MOL      0.061886
     33 H14        -2.1480   -5.7550   -2.8850 hc        1 MOL      0.061886
     34 H15        -0.6110   -5.2570   -3.4160 hc        1 MOL      0.061886
     35 H16        -3.0910   -4.5640    0.2570 hc        1 MOL      0.046483
     36 H17        -3.5150   -5.5080   -1.2180 hc        1 MOL      0.046483
     37 H18        -3.5320   -6.2410    0.4420 hc        1 MOL      0.046483
     38 N3          2.3600   -3.9630   -2.3020 n         1 MOL     -0.352849
     39 C13         3.0800   -3.4930   -3.5140 c3        1 MOL      0.023430
     40 C14         4.5310   -3.1550   -3.3340 c         1 MOL      0.339808
     41 O6          5.3870   -3.1050   -4.2490 o         1 MOL     -0.519310
     42 C15         2.3100   -2.3630   -4.2510 c3        1 MOL     -0.177727
     43 C16         1.9020   -1.2080   -3.3250 c         1 MOL      0.731542
     44 O7          2.6070   -1.1150   -2.2700 o         1 MOL     -0.691973
     45 O8          1.1510   -0.3080   -3.7160 o         1 MOL     -0.691973
     46 H19         2.4150   -3.2310   -1.6110 hn        1 MOL      0.256268
     47 H20         2.9780   -4.3220   -4.2190 h1        1 MOL      0.092949
     48 H21         1.4380   -2.8170   -4.7230 hc        1 MOL      0.048191
     49 H22         2.9510   -1.9340   -5.0110 hc        1 MOL      0.048191
     50 N4          5.0370   -2.9750   -2.0400 n         1 MOL     -0.086203
     51 C17         6.4870   -2.7790   -1.6950 c3        1 MOL     -0.232565
     52 C18         7.1640   -1.4780   -2.0280 c         1 MOL      0.539653
     53 O9          8.3550   -1.4420   -2.3970 o         1 MOL     -0.603238
     54 H23         4.3500   -3.0610   -1.2950 hn        1 MOL      0.065398
     55 H24         7.1460   -3.4990   -2.1790 h1        1 MOL      0.107867
     56 H25         6.5080   -2.9240   -0.6140 h1        1 MOL      0.107867
     57 N5          6.4170   -0.3570   -2.0370 n         1 MOL     -0.206536
     58 C19         6.8320    0.9980   -2.4190 c3        1 MOL      0.062502
     59 C20         7.3070    1.7160   -1.1630 c         1 MOL      0.304639
     60 O10         8.1870    2.6010   -1.2610 o         1 MOL     -0.536991
     61 C21         5.6700    1.8270   -2.9630 c3        1 MOL     -0.323482
     62 C22         4.4160    1.9490   -2.0510 c         1 MOL      0.790626
     63 O11         4.2150    1.2040   -1.0010 o         1 MOL     -0.661088
     64 O12         3.5050    2.6940   -2.4780 o         1 MOL     -0.661088
     65 H26         5.5480   -0.4950   -1.5400 hn        1 MOL      0.143357
     66 H27         7.6320    1.0080   -3.1570 h1        1 MOL      0.106203
     67 H28         5.3640    1.4000   -3.9100 hc        1 MOL      0.099765
     68 H29         6.0410    2.8390   -3.1510 hc        1 MOL      0.099765
     69 N6          6.8030    1.3220    0.0380 n         1 MOL     -0.023476
     70 C23         7.0980    1.8540    1.2790 c3        1 MOL     -0.133865
     71 C24         6.2290    3.0700    1.6140 c         1 MOL      0.519821
     72 O13         6.6470    4.0370    2.2890 o         1 MOL     -0.611134
     73 H30         6.1100    0.5910   -0.0650 hn        1 MOL      0.092859
     74 H31         8.1450    2.1750    1.2330 h1        1 MOL      0.058926
     75 H32         7.0830    1.0540    2.0230 h1        1 MOL      0.058926
     76 N7          5.0070    3.1050    1.1490 n         1 MOL     -0.228697
     77 C25         3.8770    3.9290    1.4990 c3        1 MOL      0.052704
     78 C26         2.6470    3.0950    1.7900 c         1 MOL      0.418953
     79 O14         2.7850    1.8640    1.6900 o         1 MOL     -0.619078
     80 C27         3.6460    4.9920    0.4180 c3        1 MOL     -0.242098
     81 C28         4.6790    6.1220    0.4720 c3        1 MOL     -0.114349
     82 C29         4.3600    7.3680   -0.3680 c         1 MOL      0.659281
     83 N8          5.1890    8.4170   -0.3330 n         1 MOL     -0.844203
     84 O15         3.4320    7.4250   -1.1670 o         1 MOL     -0.547302
     85 H33         4.7130    2.4330    0.4600 hn        1 MOL      0.206477
     86 H34         4.1520    4.3930    2.4390 h1        1 MOL      0.040153
     87 H35         2.6890    5.5010    0.5310 hc        1 MOL      0.100662
     88 H36         3.7280    4.5330   -0.5770 hc        1 MOL      0.100662
     89 H37         5.6730    5.8260    0.1450 hc        1 MOL      0.058748
     90 H38         4.8340    6.5450    1.4610 hc        1 MOL      0.058748
     91 H39         6.0410    8.3820    0.2160 hn        1 MOL      0.358138
     92 H40         4.9330    9.2160   -0.8880 hn        1 MOL      0.358138
     93 N9          1.5030    3.6850    2.1140 n         1 MOL     -0.207465
     94 C30         0.1570    3.0740    2.3810 c3        1 MOL     -0.097722
     95 C31        -0.7480    3.4130    1.1410 c         1 MOL      0.430556
     96 O16        -0.8760    4.5900    0.7550 o         1 MOL     -0.561632
     97 C32        -0.4630    3.5360    3.7040 c3        1 MOL      0.294212
     98 C33        -1.6850    2.7970    4.2200 c3        1 MOL     -0.344844
     99 C34         0.7000    3.4590    4.7820 c3        1 MOL     -0.344844
    100 H41         1.6140    4.6890    2.1110 hn        1 MOL      0.225962
    101 H42         0.3790    2.0210    2.5480 h1        1 MOL      0.178652
    102 H43        -0.6650    4.6110    3.6260 hc        1 MOL     -0.045020
    103 H44        -1.4230    1.7430    4.2370 hc        1 MOL      0.072741
    104 H45        -2.0260    3.0900    5.2090 hc        1 MOL      0.072741
    105 H46        -2.4380    2.8770    3.4350 hc        1 MOL      0.072741
    106 H47         1.5200    4.1460    4.5640 hc        1 MOL      0.072741
    107 H48         0.3120    3.7370    5.7630 hc        1 MOL      0.072741
    108 H49         1.0610    2.4230    4.8250 hc        1 MOL      0.072741
    109 N10        -1.3900    2.4580    0.5230 n         1 MOL     -0.304048
    110 C35        -2.5600    2.5690   -0.3630 c3        1 MOL      0.347791
    111 C36        -3.9160    2.5010    0.4930 c         1 MOL      0.139037
    112 O17        -3.8410    1.8530    1.5430 o         1 MOL     -0.245181
    113 C37        -2.5340    1.5620   -1.5440 c3        1 MOL     -0.355693
    114 C38        -3.4920    1.8790   -2.6500 c         1 MOL      0.766748
    115 N11        -3.3660    3.0190   -3.3280 n         1 MOL     -0.848983
    116 O18        -4.3510    1.1300   -2.9420 o         1 MOL     -0.535646
    117 H50        -1.1290    1.5290    0.8060 hn        1 MOL      0.260656
    118 H51        -2.5340    3.5710   -0.7710 h1        1 MOL     -0.035056
    119 H52        -2.8370    0.6030   -1.1370 hc        1 MOL      0.093172
    120 H53        -1.5310    1.5080   -1.9670 hc        1 MOL      0.093172
    121 H54        -2.6420    3.6550   -3.0480 hn        1 MOL      0.373465
    122 H55        -3.9160    3.1670   -4.1710 hn        1 MOL      0.373465
    123 N12        -5.0100    2.9590   -0.0500 n         1 MOL     -0.162635
    124 C39        -6.3150    2.6960    0.5820 c3        1 MOL      0.042753
    125 C40        -6.5810    1.1710    0.7500 c         1 MOL      0.549771
    126 O19        -7.2650    0.8310    1.6730 o         1 MOL     -0.555690
    127 C41        -7.4430    3.4990   -0.0900 c3        1 MOL     -0.323466
    128 C42        -7.3320    3.2730   -1.5930 ca        1 MOL      0.050927
    129 C43        -6.6410    4.2040   -2.3450 ca        1 MOL     -0.113260
    130 C44        -7.8890    2.1250   -2.1770 ca        1 MOL     -0.113260
    131 C45        -6.5210    4.0290   -3.7180 ca        1 MOL     -0.304205
    132 C46        -7.8350    1.9480   -3.5840 ca        1 MOL     -0.304205
    133 C47        -7.1330    2.9220   -4.3300 ca        1 MOL      0.340840
    134 O20        -6.8930    2.7620   -5.6570 oh        1 MOL     -0.541344
    135 H56        -4.9850    3.4790   -0.9180 hn        1 MOL      0.149541
    136 H57        -6.2410    3.0650    1.6060 h1        1 MOL      0.050865
    137 H58        -7.3350    4.5720    0.0700 hc        1 MOL      0.126556
    138 H59        -8.4180    3.1810    0.2730 hc        1 MOL      0.126556
    139 H60        -6.2270    5.0450   -1.8070 ha        1 MOL      0.101366
    140 H61        -8.2200    1.3500   -1.5090 ha        1 MOL      0.101366
    141 H62        -5.9950    4.7690   -4.3120 ha        1 MOL      0.159729
    142 H63        -8.3220    1.1210   -4.0830 ha        1 MOL      0.159729
    143 H64        -7.3040    1.9130   -5.8370 ho        1 MOL      0.409962
    144 N13        -6.1080    0.2950   -0.1550 n         1 MOL     -0.383077
    145 C48        -6.2930   -1.1470   -0.0720 c3        1 MOL     -0.027143
    146 C49        -5.5640   -1.7240    1.2040 c         1 MOL      0.312998
    147 O21        -5.9500   -2.6950    1.8360 o         1 MOL     -0.509631
    148 C50        -5.8050   -1.7690   -1.3710 c3        1 MOL      0.094078
    149 C51        -6.8010   -1.7160   -2.5200 c3        1 MOL      0.015270
    150 C52        -8.1460   -2.2940   -2.1880 c         1 MOL      0.611349
    151 O22        -8.2370   -3.5340   -2.2330 o         1 MOL     -0.707023
    152 O23        -9.1230   -1.6530   -1.6790 o         1 MOL     -0.707023
    153 H65        -5.5780    0.5860   -0.9650 hn        1 MOL      0.435947
    154 H66        -7.3460   -1.3840    0.1060 h1        1 MOL      0.150719
    155 H67        -5.6210   -2.8270   -1.2030 hc        1 MOL     -0.025733
    156 H68        -4.9460   -1.2280   -1.7590 hc        1 MOL     -0.025733
    157 H69        -6.3780   -2.2770   -3.3560 hc        1 MOL     -0.053943
    158 H70        -6.9950   -0.7030   -2.9040 hc        1 MOL     -0.053943
    159 N14        -4.5590   -1.0570    1.7780 n         1 MOL     -0.032576
    160 C53        -3.7040   -1.4100    2.9010 c3        1 MOL     -0.002681
    161 C54        -4.1940   -0.7710    4.1450 c         1 MOL      0.495906
    162 O24        -4.3090   -1.4640    5.1280 o         1 MOL     -0.576268
    163 C55        -2.2750   -0.9360    2.5220 c3        1 MOL     -0.084362
    164 C56        -1.5280   -1.7850    1.5110 c3        1 MOL      0.216298
    165 C57        -0.2660   -1.2190    0.9210 c         1 MOL      0.687666
    166 O25         0.2950   -1.7960   -0.0360 o         1 MOL     -0.801516
    167 O26         0.2430   -0.2530    1.4860 o         1 MOL     -0.801516
    168 H71        -4.2760   -0.2210    1.2860 hn        1 MOL     -0.023760
    169 H72        -3.7880   -2.4880    3.0340 h1        1 MOL      0.063337
    170 H73        -1.6620   -0.8610    3.4250 hc        1 MOL      0.024245
    171 H74        -2.3810    0.0310    2.0270 hc        1 MOL      0.024245
    172 H75        -2.2010   -2.1330    0.7140 hc        1 MOL     -0.067865
    173 H76        -1.2830   -2.7310    1.9960 hc        1 MOL     -0.067865
    174 N15        -4.6090    0.4890    4.0980 n         1 MOL     -0.102748
    175 C58        -5.0240    1.2990    5.3030 c3        1 MOL     -0.314538
    176 H77        -5.6460    0.6860    5.9550 h1        1 MOL      0.112346
    177 H78        -4.1370    1.6230    5.8470 h1        1 MOL      0.112346
    178 H79        -5.5900    2.1720    4.9780 h1        1 MOL      0.112346
    179 H80        -4.5860    0.9230    3.1800 hn        1 MOL      0.081985
    180 Ca1         2.5630   -0.3910    0.2830 Ca        1 MOL      1.823397
    181 O27         2.6150   -0.8870    2.8460 oh        1 MOL     -0.935572
    182 H81         3.1200   -0.2280    3.3200 ho        1 MOL      0.433247
    183 H82         1.9830   -1.2200    3.4890 ho        1 MOL      0.433247
    184 O28         5.2700   -0.8260    0.8580 oh        1 MOL     -0.935572
    185 H83         5.0310   -1.7560    0.7920 ho        1 MOL      0.433247
    186 H84         5.7350   -0.7500    1.6870 ho        1 MOL      0.433247
    187 O29         1.4440    1.4830   -1.2730 oh        1 MOL     -0.935572
    188 H85         1.0470    1.0900   -2.0440 ho        1 MOL      0.433247
    189 H86         2.2390    1.9120   -1.6030 ho        1 MOL      0.433247
@<TRIPOS>BOND
     1    1    2 1   
     2    1    4 1   
     3    1    5 1   
     4    1    6 1   
     5    2    3 2   
     6    2    7 1   
     7    7    8 1   
     8    7   15 1   
     9    8    9 1   
    10    8   11 1   
    11    8   16 1   
    12    9   10 2   
    13    9   19 1   
    14   11   12 1   
    15   11   17 1   
    16   11   18 1   
    17   12   13 1   
    18   12   14 1   
    19   19   20 1   
    20   19   27 1   
    21   20   21 1   
    22   20   23 1   
    23   20   28 1   
    24   21   22 2   
    25   21   38 1   
    26   23   24 1   
    27   23   25 1   
    28   23   29 1   
    29   24   26 1   
    30   24   30 1   
    31   24   31 1   
    32   25   32 1   
    33   25   33 1   
    34   25   34 1   
    35   26   35 1   
    36   26   36 1   
    37   26   37 1   
    38   38   39 1   
    39   38   46 1   
    40   39   40 1   
    41   39   42 1   
    42   39   47 1   
    43   40   41 2   
    44   40   50 1   
    45   42   43 1   
    46   42   48 1   
    47   42   49 1   
    48   43   44 1   
    49   43   45 1   
    50   50   51 1   
    51   50   54 1   
    52   51   52 1   
    53   51   55 1   
    54   51   56 1   
    55   52   53 2   
    56   52   57 1   
    57   57   58 1   
    58   57   65 1   
    59   58   59 1   
    60   58   61 1   
    61   58   66 1   
    62   59   60 2   
    63   59   69 1   
    64   61   62 1   
    65   61   67 1   
    66   61   68 1   
    67   62   63 1   
    68   62   64 1   
    69   69   70 1   
    70   69   73 1   
    71   70   71 1   
    72   70   74 1   
    73   70   75 1   
    74   71   72 2   
    75   71   76 1   
    76   76   77 1   
    77   76   85 1   
    78   77   78 1   
    79   77   80 1   
    80   77   86 1   
    81   78   79 2   
    82   78   93 1   
    83   80   81 1   
    84   80   87 1   
    85   80   88 1   
    86   81   82 1   
    87   81   89 1   
    88   81   90 1   
    89   82   83 1   
    90   82   84 2   
    91   83   91 1   
    92   83   92 1   
    93   93   94 1   
    94   93  100 1   
    95   94   95 1   
    96   94   97 1   
    97   94  101 1   
    98   95   96 2   
    99   95  109 1   
   100   97   98 1   
   101   97   99 1   
   102   97  102 1   
   103   98  103 1   
   104   98  104 1   
   105   98  105 1   
   106   99  106 1   
   107   99  107 1   
   108   99  108 1   
   109  109  110 1   
   110  109  117 1   
   111  110  111 1   
   112  110  113 1   
   113  110  118 1   
   114  111  112 2   
   115  111  123 1   
   116  113  114 1   
   117  113  119 1   
   118  113  120 1   
   119  114  115 1   
   120  114  116 2   
   121  115  121 1   
   122  115  122 1   
   123  123  124 1   
   124  123  135 1   
   125  124  125 1   
   126  124  127 1   
   127  124  136 1   
   128  125  126 2   
   129  125  144 1   
   130  127  128 1   
   131  127  137 1   
   132  127  138 1   
   133  128  129 ar  
   134  128  130 ar  
   135  129  131 ar  
   136  129  139 1   
   137  130  132 ar  
   138  130  140 1   
   139  131  133 ar  
   140  131  141 1   
   141  132  133 ar  
   142  132  142 1   
   143  133  134 1   
   144  134  143 1   
   145  144  145 1   
   146  144  153 1   
   147  145  146 1   
   148  145  148 1   
   149  145  154 1   
   150  146  147 2   
   151  146  159 1   
   152  148  149 1   
   153  148  155 1   
   154  148  156 1   
   155  149  150 1   
   156  149  157 1   
   157  149  158 1   
   158  150  151 1   
   159  150  152 1   
   160  159  160 1   
   161  159  168 1   
   162  160  161 1   
   163  160  163 1   
   164  160  169 1   
   165  161  162 2   
   166  161  174 1   
   167  163  164 1   
   168  163  170 1   
   169  163  171 1   
   170  164  165 1   
   171  164  172 1   
   172  164  173 1   
   173  165  166 1   
   174  165  167 1   
   175  174  175 1   
   176  174  179 1   
   177  175  176 1   
   178  175  177 1   
   179  175  178 1   
   180  181  182 1   
   181  181  183 1   
   182  184  185 1   
   183  184  186 1   
   184  187  188 1   
   185  187  189 1   
@<TRIPOS>SUBSTRUCTURE
     1 MOL         1 TEMP              0 ****  ****    0 ROOT
