@<TRIPOS>MOLECULE
MOL
  175   173     1     0     0
SMALL
resp


@<TRIPOS>ATOM
      1 C1          0.9870   -3.5550    6.0100 c3        1 MOL     -0.261171
      2 C2          1.1450   -3.1310    4.5380 c         1 MOL      0.738967
      3 O1          0.1470   -3.0360    3.8390 o         1 MOL     -0.593120
      4 H1          0.9840   -2.6690    6.6450 hc        1 MOL      0.058162
      5 H2          0.0480   -4.0940    6.1350 hc        1 MOL      0.058162
      6 H3          1.8180   -4.2020    6.2940 hc        1 MOL      0.058162
      7 N1          2.3270   -2.8300    4.0110 n         1 MOL     -0.633119
      8 C3          2.5340   -2.3770    2.7050 c3        1 MOL      0.213465
      9 C4          2.9700   -3.5820    1.7580 c         1 MOL      0.555973
     10 O2          3.8770   -4.3190    2.2090 o         1 MOL     -0.613689
     11 C5          3.5380   -1.2240    2.7380 c3        1 MOL     -0.182321
     12 C6          3.9220   -0.7650    1.3270 c         1 MOL      0.783562
     13 O3          4.6620    0.2450    1.3150 o         1 MOL     -0.684482
     14 O4          3.5420   -1.2540    0.2890 o         1 MOL     -0.684482
     15 H4          3.1320   -3.0460    4.5720 hn        1 MOL      0.314283
     16 H5          1.6050   -1.9850    2.2900 h1        1 MOL     -0.063470
     17 H6          4.4280   -1.4980    3.3100 hc        1 MOL      0.033658
     18 H7          3.1330   -0.4110    3.3440 hc        1 MOL      0.033658
     19 N2          2.3180   -3.7790    0.6220 n         1 MOL     -0.345726
     20 C7          2.5880   -4.8700   -0.3180 c3        1 MOL      0.072051
     21 C8          3.8160   -4.6780   -1.2800 c         1 MOL      0.589573
     22 O5          4.1490   -5.6400   -1.9460 o         1 MOL     -0.570549
     23 C9          1.2760   -4.9910   -1.1310 c3        1 MOL     -0.309844
     24 H8          1.6020   -3.1290    0.3330 hn        1 MOL      0.333349
     25 H9          2.7610   -5.7910    0.2450 h1        1 MOL      0.037077
     26 H10         1.2260   -4.1970   -1.8810 hc        1 MOL      0.104424
     27 H11         1.2380   -5.9380   -1.6630 hc        1 MOL      0.104424
     28 H12         0.5050   -4.8750   -0.3750 hc        1 MOL      0.104424
     29 N3          4.4210   -3.5240   -1.2740 n         1 MOL     -0.467509
     30 C10         5.3670   -2.9990   -2.3170 c3        1 MOL      0.068549
     31 C11         6.7490   -2.5420   -1.6820 c         1 MOL      0.391220
     32 O6          7.7230   -2.2140   -2.3210 o         1 MOL     -0.515842
     33 C12         4.6720   -1.8460   -3.0160 c3        1 MOL     -0.069876
     34 C13         3.3310   -2.2340   -3.5480 c         1 MOL      0.791429
     35 O7          2.3160   -1.8610   -2.9650 o         1 MOL     -0.729645
     36 O8          3.2990   -2.7480   -4.6680 o         1 MOL     -0.729645
     37 H13         3.8910   -2.9000   -0.6880 hn        1 MOL      0.095027
     38 H14         5.6340   -3.8170   -2.9800 h1        1 MOL      0.091129
     39 H15         5.2920   -1.4850   -3.8430 hc        1 MOL      0.005773
     40 H16         4.4940   -1.1720   -2.1820 hc        1 MOL      0.005773
     41 N4          6.8260   -2.2910   -0.3740 n         1 MOL     -0.142703
     42 C14         8.0140   -1.7930    0.2910 c3        1 MOL     -0.217870
     43 C15         8.2520   -0.4110   -0.1690 c         1 MOL      0.576304
     44 O9          9.4460   -0.0500   -0.2270 o         1 MOL     -0.574276
     45 H17         5.9820   -2.4520    0.1550 hn        1 MOL      0.188080
     46 H18         8.8770   -2.4310    0.1090 h1        1 MOL      0.110376
     47 H19         7.7110   -1.8560    1.3330 h1        1 MOL      0.110376
     48 N5          7.2410    0.4570   -0.4780 n         1 MOL     -0.420645
     49 C16         7.3800    1.8710   -0.9480 c3        1 MOL      0.080504
     50 C17         6.9850    2.8510    0.0810 c         1 MOL      0.451220
     51 O10         7.3320    3.9930   -0.0630 o         1 MOL     -0.560440
     52 C18         6.6620    2.0070   -2.3030 c3        1 MOL     -0.175119
     53 C19         5.1280    2.2000   -2.3360 c         1 MOL      0.503659
     54 N6          4.6150    3.2530   -2.8870 n         1 MOL     -0.675536
     55 O11         4.3630    1.4470   -1.7670 o         1 MOL     -0.545536
     56 H20         6.3550    0.0200   -0.3130 hn        1 MOL      0.290041
     57 H21         8.4490    1.9990   -1.1040 h1        1 MOL      0.110613
     58 H22         6.8410    1.1280   -2.9140 hc        1 MOL      0.077255
     59 H23         7.1400    2.8220   -2.8470 hc        1 MOL      0.077255
     60 H24         5.2650    3.8990   -3.3180 hn        1 MOL      0.336079
     61 H25         3.6150    3.3720   -2.9590 hn        1 MOL      0.336079
     62 N7          6.3410    2.4650    1.2090 n         1 MOL     -0.206537
     63 C20         6.1810    3.3890    2.4170 c3        1 MOL     -0.251842
     64 C21         4.8290    3.9440    2.4230 c         1 MOL      0.648759
     65 O12         4.6350    4.8790    3.2150 o         1 MOL     -0.606519
     66 H26         5.8840    1.5680    1.1790 hn        1 MOL      0.103265
     67 H27         6.8390    4.2550    2.3320 h1        1 MOL      0.143370
     68 H28         6.2830    2.8830    3.3680 h1        1 MOL      0.143370
     69 N8          3.9020    3.5160    1.5740 n         1 MOL     -0.427927
     70 C22         2.4730    4.0010    1.5720 c3        1 MOL     -0.120572
     71 C23         1.4630    2.7820    1.4240 c         1 MOL      0.641611
     72 O13         1.8120    1.7620    0.7830 o         1 MOL     -0.682561
     73 C24         2.0960    5.0310    0.5440 c3        1 MOL      0.435209
     74 C25         2.3810    6.4980    0.9060 c3        1 MOL     -0.404935
     75 O14         2.5060    4.7590   -0.7890 oh        1 MOL     -0.669473
     76 H29         4.1170    2.6540    1.0730 hn        1 MOL      0.305077
     77 H30         2.3320    4.4470    2.5530 h1        1 MOL      0.090444
     78 H31         1.0030    5.0040    0.5850 h1        1 MOL      0.027384
     79 H32         3.3990    5.0960   -0.8990 ho        1 MOL      0.414623
     80 H33         1.9240    6.8150    1.8320 hc        1 MOL      0.105507
     81 H34         3.4570    6.5110    1.0660 hc        1 MOL      0.105507
     82 H35         2.0750    7.0590    0.0220 hc        1 MOL      0.105507
     83 N9          0.2670    2.9280    1.8930 n         1 MOL     -0.271122
     84 C26        -0.8230    1.9580    1.7100 c3        1 MOL     -0.142956
     85 C27        -1.9720    2.6180    0.8920 c         1 MOL      0.452373
     86 O15        -2.4710    3.6980    1.2660 o         1 MOL     -0.552591
     87 C28        -1.3400    1.2090    2.9430 c3        1 MOL      0.120233
     88 C29        -2.0430    2.0230    3.9590 c3        1 MOL     -0.127768
     89 C30        -0.1020    0.4830    3.5720 c3        1 MOL     -0.736066
     90 C31        -2.8110    1.1830    5.0030 c3        1 MOL     -0.330196
     91 H36         0.0770    3.7080    2.5100 hn        1 MOL      0.214310
     92 H37        -0.4260    1.2110    1.0070 h1        1 MOL      0.103822
     93 H38        -2.0360    0.4160    2.6640 hc        1 MOL      0.036076
     94 H39        -2.7650    2.7450    3.5650 hc        1 MOL      0.081086
     95 H40        -1.3860    2.6150    4.5850 hc        1 MOL      0.081086
     96 H41         0.7870    1.1220    3.5970 hc        1 MOL      0.220061
     97 H42        -0.4190   -0.0860    4.4460 hc        1 MOL      0.220061
     98 H43         0.2270   -0.3360    2.9450 hc        1 MOL      0.220061
     99 H44        -3.3390    1.8500    5.6830 hc        1 MOL      0.088539
    100 H45        -3.2330    0.3050    4.5220 hc        1 MOL      0.088539
    101 H46        -2.1130    0.6810    5.6750 hc        1 MOL      0.088539
    102 N10        -2.2700    1.9780   -0.2730 n         1 MOL     -0.470762
    103 C32        -3.3440    2.2470   -1.1800 c3        1 MOL      0.261741
    104 C33        -4.5870    1.5810   -0.6490 c         1 MOL      0.581617
    105 O16        -4.5130    0.6200    0.1440 o         1 MOL     -0.477364
    106 C34        -2.8840    1.7960   -2.5800 c3        1 MOL     -0.267052
    107 C35        -3.7890    2.0990   -3.6970 c         1 MOL      0.743024
    108 O17        -3.4970    1.6720   -4.8640 o         1 MOL     -0.732643
    109 O18        -4.7340    2.8330   -3.5040 o         1 MOL     -0.732643
    110 H47        -1.6550    1.1970   -0.4670 hn        1 MOL      0.382240
    111 H48        -3.5170    3.3280   -1.1910 h1        1 MOL      0.028347
    112 H49        -2.7660    0.7150   -2.5490 hc        1 MOL      0.051151
    113 H50        -1.9660    2.3700   -2.7650 hc        1 MOL      0.051151
    114 N11        -5.7280    1.9620   -1.1260 n         1 MOL     -0.844984
    115 C36        -7.0430    1.4350   -0.6110 c3        1 MOL      0.682835
    116 C37        -7.1740   -0.1210   -0.5370 c         1 MOL      0.092978
    117 O19        -7.7790   -0.5340    0.4720 o         1 MOL     -0.452076
    118 C38        -8.2880    1.9500   -1.3300 c3        1 MOL     -0.329190
    119 C39        -9.6070    1.4710   -0.6920 ca        1 MOL      0.147118
    120 C40        -9.8560    1.8130    0.6530 ca        1 MOL     -0.225790
    121 C41       -10.4870    0.7730   -1.4960 ca        1 MOL     -0.225790
    122 C42       -11.0990    1.4500    1.1710 ca        1 MOL     -0.018415
    123 C43       -11.7230    0.3430   -0.8950 ca        1 MOL     -0.018415
    124 C44       -12.0650    0.7200    0.3900 ca        1 MOL     -0.234274
    125 H51        -5.7710    2.6960   -1.8280 hn        1 MOL      0.361598
    126 H52        -7.1340    1.8210    0.4050 h1        1 MOL     -0.007051
    127 H53        -8.2080    1.7570   -2.4040 hc        1 MOL      0.091072
    128 H54        -8.3450    3.0250   -1.2180 hc        1 MOL      0.091072
    129 H55        -9.0680    2.3570    1.1640 ha        1 MOL      0.126917
    130 H56       -10.2770    0.5140   -2.5220 ha        1 MOL      0.126917
    131 H57       -11.3030    1.6800    2.2020 ha        1 MOL      0.081459
    132 H58       -12.4490   -0.1440   -1.5400 ha        1 MOL      0.081459
    133 H59       -13.0250    0.5000    0.8240 ha        1 MOL      0.123764
    134 N12        -6.7610   -0.9450   -1.4930 n         1 MOL     -0.036345
    135 C45        -6.7500   -2.4160   -1.3320 c3        1 MOL      0.064526
    136 C46        -5.6870   -2.9080   -0.2090 c         1 MOL      0.191935
    137 O20        -5.9950   -3.8610    0.5690 o         1 MOL     -0.486433
    138 C47        -6.2950   -2.9340   -2.6400 c3        1 MOL      0.039521
    139 C48        -6.5790   -1.8640   -3.7630 c3        1 MOL     -0.241888
    140 C49        -6.3370   -0.6210   -2.8830 c3        1 MOL      0.115617
    141 H60        -7.7730   -2.7320   -1.1430 h1        1 MOL      0.065918
    142 H61        -5.2480   -3.2280   -2.5770 hc        1 MOL      0.001983
    143 H62        -6.9400   -3.8020   -2.8120 hc        1 MOL      0.001983
    144 H63        -5.8740   -1.9770   -4.5970 hc        1 MOL      0.088036
    145 H64        -7.6150   -1.9370   -4.0710 hc        1 MOL      0.088036
    146 H65        -5.2880   -0.3190   -2.7980 h1        1 MOL      0.021981
    147 H66        -6.8880    0.2050   -3.3280 h1        1 MOL      0.021981
    148 N13        -4.5540   -2.2010   -0.0440 n         1 MOL     -0.033630
    149 C50        -3.6560   -2.5160    1.0730 c3        1 MOL     -0.373089
    150 C51        -4.2550   -2.1890    2.4920 c         1 MOL      0.546461
    151 O21        -3.9530   -2.8990    3.4800 o         1 MOL     -0.569526
    152 C52        -2.3130   -1.9240    0.7490 c3        1 MOL      0.251323
    153 C53        -1.5510   -2.3640   -0.5120 c3        1 MOL     -0.059655
    154 C54        -0.3470   -1.4760   -0.7140 c         1 MOL      0.609438
    155 O22        -0.4190   -0.3800   -1.3900 o         1 MOL     -0.770921
    156 O23         0.6760   -1.7440   -0.1280 o         1 MOL     -0.770921
    157 H67        -4.2850   -1.4490   -0.6660 hn        1 MOL      0.291363
    158 H68        -3.4440   -3.5870    1.0650 h1        1 MOL      0.142060
    159 H69        -1.7640   -2.2500    1.6410 hc        1 MOL      0.045822
    160 H70        -2.4660   -0.8500    0.6580 hc        1 MOL      0.045822
    161 H71        -2.3570   -2.2930   -1.2410 hc        1 MOL     -0.029091
    162 H72        -1.2600   -3.4110   -0.3720 hc        1 MOL     -0.029091
    163 N14        -5.1240   -1.1760    2.5420 n         1 MOL     -0.016943
    164 C55        -6.0540   -0.9130    3.6680 c3        1 MOL     -0.207565
    165 H73        -5.9200    0.1110    4.0170 h1        1 MOL      0.079986
    166 H74        -7.0820   -1.0500    3.3320 h1        1 MOL      0.079986
    167 H75        -5.8430   -1.6060    4.4830 h1        1 MOL      0.079986
    168 H76        -5.1330   -0.5630    1.7470 hn        1 MOL      0.051134
    169 Ca1         2.1250    0.0700   -1.3080 Ca        1 MOL      1.788077
    170 O24         2.7230    0.9920   -3.9200 oh        1 MOL     -0.836560
    171 H77         2.0910    0.8980   -4.6290 ho        1 MOL      0.409595
    172 H78         3.5710    1.0400   -4.3530 ho        1 MOL      0.409595
    173 O25         0.8780    2.8260   -2.0840 oh        1 MOL     -0.836560
    174 H79         0.6310    3.0910   -2.9690 ho        1 MOL      0.409595
    175 H80         1.3140    3.5930   -1.7070 ho        1 MOL      0.409595
@<TRIPOS>BOND
     1    1    2 1   
     2    1    4 1   
     3    1    5 1   
     4    1    6 1   
     5    2    3 2   
     6    2    7 1   
     7    7    8 1   
     8    7   15 1   
     9    8    9 1   
    10    8   11 1   
    11    8   16 1   
    12    9   10 2   
    13    9   19 1   
    14   11   12 1   
    15   11   17 1   
    16   11   18 1   
    17   12   13 1   
    18   12   14 1   
    19   19   20 1   
    20   19   24 1   
    21   20   21 1   
    22   20   23 1   
    23   20   25 1   
    24   21   22 2   
    25   21   29 1   
    26   23   26 1   
    27   23   27 1   
    28   23   28 1   
    29   29   30 1   
    30   29   37 1   
    31   30   31 1   
    32   30   33 1   
    33   30   38 1   
    34   31   32 2   
    35   31   41 1   
    36   33   34 1   
    37   33   39 1   
    38   33   40 1   
    39   34   35 1   
    40   34   36 1   
    41   41   42 1   
    42   41   45 1   
    43   42   43 1   
    44   42   46 1   
    45   42   47 1   
    46   43   44 2   
    47   43   48 1   
    48   48   49 1   
    49   48   56 1   
    50   49   50 1   
    51   49   52 1   
    52   49   57 1   
    53   50   51 2   
    54   50   62 1   
    55   52   53 1   
    56   52   58 1   
    57   52   59 1   
    58   53   54 1   
    59   53   55 2   
    60   54   60 1   
    61   54   61 1   
    62   62   63 1   
    63   62   66 1   
    64   63   64 1   
    65   63   67 1   
    66   63   68 1   
    67   64   65 2   
    68   64   69 1   
    69   69   70 1   
    70   69   76 1   
    71   70   71 1   
    72   70   73 1   
    73   70   77 1   
    74   71   72 2   
    75   71   83 1   
    76   73   74 1   
    77   73   75 1   
    78   73   78 1   
    79   74   80 1   
    80   74   81 1   
    81   74   82 1   
    82   75   79 1   
    83   83   84 1   
    84   83   91 1   
    85   84   85 1   
    86   84   87 1   
    87   84   92 1   
    88   85   86 2   
    89   85  102 1   
    90   87   88 1   
    91   87   89 1   
    92   87   93 1   
    93   88   90 1   
    94   88   94 1   
    95   88   95 1   
    96   89   96 1   
    97   89   97 1   
    98   89   98 1   
    99   90   99 1   
   100   90  100 1   
   101   90  101 1   
   102  102  103 1   
   103  102  110 1   
   104  103  104 1   
   105  103  106 1   
   106  103  111 1   
   107  104  105 2   
   108  104  114 1   
   109  106  107 1   
   110  106  112 1   
   111  106  113 1   
   112  107  108 1   
   113  107  109 1   
   114  114  115 1   
   115  114  125 1   
   116  115  116 1   
   117  115  118 1   
   118  115  126 1   
   119  116  117 2   
   120  116  134 1   
   121  118  119 1   
   122  118  127 1   
   123  118  128 1   
   124  119  120 ar  
   125  119  121 ar  
   126  120  122 ar  
   127  120  129 1   
   128  121  123 ar  
   129  121  130 1   
   130  122  124 ar  
   131  122  131 1   
   132  123  124 ar  
   133  123  132 1   
   134  124  133 1   
   135  134  135 1   
   136  134  140 1   
   137  135  136 1   
   138  135  138 1   
   139  135  141 1   
   140  136  137 2   
   141  136  148 1   
   142  138  139 1   
   143  138  142 1   
   144  138  143 1   
   145  139  140 1   
   146  139  144 1   
   147  139  145 1   
   148  140  146 1   
   149  140  147 1   
   150  148  149 1   
   151  148  157 1   
   152  149  150 1   
   153  149  152 1   
   154  149  158 1   
   155  150  151 2   
   156  150  163 1   
   157  152  153 1   
   158  152  159 1   
   159  152  160 1   
   160  153  154 1   
   161  153  161 1   
   162  153  162 1   
   163  154  155 1   
   164  154  156 1   
   165  163  164 1   
   166  163  168 1   
   167  164  165 1   
   168  164  166 1   
   169  164  167 1   
   170  170  171 1   
   171  170  172 1   
   172  173  174 1   
   173  173  175 1   
@<TRIPOS>SUBSTRUCTURE
     1 MOL         1 TEMP              0 ****  ****    0 ROOT
