@<TRIPOS>MOLECULE
MOL
  182   178     1     0     0
SMALL
resp


@<TRIPOS>ATOM
      1 C1          2.1150    1.5950    6.1440 c3        1 MOL     -0.283368
      2 C2          1.6960    1.5140    4.6500 c         1 MOL      0.685444
      3 O1          2.4690    1.5500    3.7340 o         1 MOL     -0.574139
      4 H1          2.6970    2.5020    6.3080 hc        1 MOL      0.079454
      5 H2          1.2240    1.6190    6.7710 hc        1 MOL      0.079454
      6 H3          2.7180    0.7250    6.4010 hc        1 MOL      0.079454
      7 N1          0.3590    1.4210    4.3380 n         1 MOL     -0.527230
      8 C3         -0.2490    1.5710    3.0570 c3        1 MOL     -0.017899
      9 C4         -0.1800    3.0690    2.6040 c         1 MOL      0.462103
     10 O2         -0.8940    3.9220    3.1230 o         1 MOL     -0.515214
     11 C5         -1.7420    1.0400    3.1640 c3        1 MOL     -0.161526
     12 C6         -2.4810    0.9070    1.8260 c         1 MOL      0.614549
     13 O3         -1.8520    1.2030    0.8230 o         1 MOL     -0.680618
     14 O4         -3.6110    0.2890    1.7110 o         1 MOL     -0.680618
     15 H4         -0.2820    1.3040    5.1180 hn        1 MOL      0.290826
     16 H5          0.2710    0.8900    2.3810 h1        1 MOL      0.231387
     17 H6         -2.2790    1.7050    3.8370 hc        1 MOL      0.058799
     18 H7         -1.6800    0.0220    3.5480 hc        1 MOL      0.058799
     19 N2          0.6210    3.2420    1.5880 n         1 MOL     -0.053106
     20 C7          0.8420    4.5770    0.9580 c3        1 MOL     -0.174738
     21 C8         -0.2440    5.2470    0.1040 c         1 MOL      0.594121
     22 O5         -0.5930    6.3690    0.3390 o         1 MOL     -0.566532
     23 C9          2.1530    4.4280    0.1130 c3        1 MOL      0.014891
     24 C10         2.6490    5.8230   -0.4360 c3        1 MOL     -0.293066
     25 C11         3.7780    5.7080   -1.4070 c3        1 MOL      0.148955
     26 C12         4.4070    6.9820   -1.9010 c3        1 MOL      0.048573
     27 N3          5.8110    6.7450   -2.2060 n4        1 MOL     -0.424986
     28 H8          1.1060    2.4000    1.2770 hn        1 MOL      0.021255
     29 H9          1.0270    5.3470    1.7190 h1        1 MOL      0.101649
     30 H10         1.8700    3.7200   -0.6710 hc        1 MOL      0.085553
     31 H11         2.9400    3.9440    0.6880 hc        1 MOL      0.085553
     32 H12         2.9790    6.4540    0.3780 hc        1 MOL      0.084310
     33 H13         1.7690    6.2880   -0.8710 hc        1 MOL      0.084310
     34 H14         3.4730    5.0980   -2.2520 hc        1 MOL      0.006104
     35 H15         4.5230    5.0970   -0.8860 hc        1 MOL      0.006104
     36 H16         4.3820    7.7350   -1.1200 hx        1 MOL      0.075417
     37 H17         4.0040    7.3720   -2.8480 hx        1 MOL      0.075417
     38 H18         6.3080    6.7040   -1.3280 hn        1 MOL      0.345717
     39 H19         5.8770    5.9690   -2.8410 hn        1 MOL      0.345717
     40 H20         6.2240    7.5100   -2.7330 hn        1 MOL      0.345717
     41 N4         -1.0140    4.4770   -0.6390 n         1 MOL     -0.379975
     42 C13        -2.2820    4.9120   -1.4070 c3        1 MOL      0.194478
     43 C14        -3.5920    4.5390   -0.6760 c         1 MOL      0.319076
     44 O6         -4.7650    4.7630   -1.1080 o         1 MOL     -0.540548
     45 C15        -2.2840    4.5070   -2.8790 c3        1 MOL     -0.377435
     46 C16        -2.0810    2.9830   -3.1550 c         1 MOL      0.854796
     47 O7         -2.3240    2.1270   -2.2250 o         1 MOL     -0.730901
     48 O8         -1.5220    2.6570   -4.2130 o         1 MOL     -0.730901
     49 H21        -0.8330    3.4900   -0.7460 hn        1 MOL      0.245799
     50 H22        -2.3140    5.9950   -1.4960 h1        1 MOL      0.073532
     51 H23        -1.4900    5.0690   -3.3660 hc        1 MOL      0.088955
     52 H24        -3.2810    4.7290   -3.2540 hc        1 MOL      0.088955
     53 N5         -3.3380    3.8390    0.3860 n         1 MOL     -0.022388
     54 C17        -4.3770    3.6910    1.5200 c3        1 MOL     -0.138539
     55 C18        -5.5600    2.9000    1.0370 c         1 MOL      0.451907
     56 O9         -6.5970    2.9360    1.6900 o         1 MOL     -0.556645
     57 H25        -2.4490    3.3580    0.4390 hn        1 MOL     -0.006507
     58 H26        -4.7420    4.6600    1.8690 h1        1 MOL      0.122457
     59 H27        -3.8890    3.2750    2.4090 h1        1 MOL      0.122457
     60 N6         -5.5250    2.1020   -0.0690 n         1 MOL      0.030621
     61 C19        -6.6170    1.3300   -0.6340 c3        1 MOL     -0.266336
     62 C20        -7.2330    0.1600    0.1480 c         1 MOL      0.536522
     63 O10        -8.3430   -0.2680   -0.0400 o         1 MOL     -0.551504
     64 C21        -6.0660    0.8350   -1.9600 c3        1 MOL     -0.132936
     65 C22        -5.2860   -0.4860   -1.8630 c         1 MOL      0.537092
     66 N7         -5.8460   -1.6290   -2.2320 n         1 MOL     -0.711104
     67 O11        -4.1660   -0.6160   -1.2810 o         1 MOL     -0.513713
     68 H28        -4.6350    2.0900   -0.5600 hn        1 MOL      0.084518
     69 H29        -7.3310    2.1280   -0.8770 h1        1 MOL      0.141318
     70 H30        -5.3460    1.4860   -2.4680 hc        1 MOL      0.084060
     71 H31        -6.7880    0.6900   -2.7650 hc        1 MOL      0.084060
     72 H32        -6.7560   -1.6050   -2.6700 hn        1 MOL      0.344223
     73 H33        -5.2960   -2.4500   -2.0250 hn        1 MOL      0.344223
     74 N8         -6.4480   -0.3780    1.0920 n         1 MOL     -0.190600
     75 C23        -6.8420   -1.5860    1.9150 c3        1 MOL     -0.106272
     76 C24        -5.7280   -2.5900    2.0830 c         1 MOL      0.533207
     77 O12        -6.0050   -3.6040    2.7360 o         1 MOL     -0.595167
     78 H34        -5.4750   -0.1360    1.1620 hn        1 MOL      0.162063
     79 H35        -7.7020   -2.0980    1.4900 h1        1 MOL      0.095212
     80 H36        -7.0960   -1.1880    2.8960 h1        1 MOL      0.095212
     81 N9         -4.5030   -2.4020    1.6540 n         1 MOL     -0.237953
     82 C25        -3.3730   -3.4150    1.7710 c3        1 MOL     -0.073870
     83 C26        -2.0220   -2.7740    1.4630 c         1 MOL      0.909617
     84 O13        -1.9280   -1.8740    0.6280 o         1 MOL     -0.715030
     85 C27        -3.6670   -4.7070    0.9520 c3        1 MOL     -0.062536
     86 C28        -3.7470   -4.6480   -0.5690 ca        1 MOL      0.061957
     87 C29        -2.6740   -4.3150   -1.3550 ca        1 MOL     -0.176481
     88 C30        -5.0180   -4.9440   -1.1300 ca        1 MOL     -0.176481
     89 C31        -2.9420   -4.2130   -2.7300 ca        1 MOL     -0.232313
     90 C32        -5.2400   -4.7760   -2.5600 ca        1 MOL     -0.232313
     91 C33        -4.1660   -4.3700   -3.3260 ca        1 MOL      0.324291
     92 O14        -4.3610   -4.1200   -4.6500 oh        1 MOL     -0.544409
     93 H37        -4.2230   -1.5240    1.2240 hn        1 MOL      0.151268
     94 H38        -3.2440   -3.7390    2.8000 h1        1 MOL      0.069971
     95 H39        -4.5430   -5.2140    1.3650 hc        1 MOL      0.049728
     96 H40        -2.8850   -5.3840    1.2910 hc        1 MOL      0.049728
     97 H41        -1.7120   -4.0350   -0.9520 ha        1 MOL      0.154391
     98 H42        -5.8300   -5.2430   -0.4990 ha        1 MOL      0.154391
     99 H43        -2.1510   -3.9280   -3.3940 ha        1 MOL      0.124615
    100 H44        -6.1540   -5.0000   -3.0860 ha        1 MOL      0.124615
    101 H45        -5.2340   -4.4270   -4.9190 ho        1 MOL      0.396070
    102 N10        -0.9970   -3.1990    2.2590 n         1 MOL     -0.681904
    103 C34         0.3930   -2.7370    2.0470 c3        1 MOL      0.033659
    104 C35         1.0880   -3.6550    1.0010 c         1 MOL      0.374945
    105 O15         0.9950   -4.8660    1.1680 o         1 MOL     -0.509371
    106 C36         1.1290   -2.7800    3.4630 c3        1 MOL      0.121904
    107 C37         0.3260   -2.3480    4.6800 c3        1 MOL      0.249240
    108 C38         2.3330   -1.8610    3.3510 c3        1 MOL     -0.198315
    109 C39         0.7520   -3.0300    5.9370 c3        1 MOL     -0.361923
    110 H46        -1.2460   -3.7240    3.0830 hn        1 MOL      0.317827
    111 H47         0.2960   -1.7050    1.7010 h1        1 MOL      0.091519
    112 H48         1.6070   -3.7380    3.6290 hc        1 MOL      0.026281
    113 H49        -0.7340   -2.6010    4.6260 hc        1 MOL     -0.053175
    114 H50         0.3570   -1.2630    4.7790 hc        1 MOL     -0.053175
    115 H51         2.2130   -0.8680    2.9170 hc        1 MOL      0.021177
    116 H52         2.9140   -1.8370    4.2690 hc        1 MOL      0.021177
    117 H53         3.0330   -2.3470    2.6760 hc        1 MOL      0.021177
    118 H54         0.0480   -2.7680    6.7250 hc        1 MOL      0.082911
    119 H55         0.6960   -4.1020    5.7880 hc        1 MOL      0.082911
    120 H56         1.7940   -2.8050    6.1630 hc        1 MOL      0.082911
    121 N11         1.9400   -3.0350    0.1740 n         1 MOL     -0.110157
    122 C40         2.9160   -3.7880   -0.6770 c3        1 MOL      0.040531
    123 C41         4.3610   -3.4120   -0.4430 c         1 MOL      0.536108
    124 O16         4.7040   -2.3400    0.1220 o         1 MOL     -0.443296
    125 C42         2.4990   -3.9650   -2.1400 c3        1 MOL     -0.132121
    126 O17         2.4580   -2.7160   -2.8480 oh        1 MOL     -0.509792
    127 H57         1.8650   -2.0290    0.0540 hn        1 MOL      0.227373
    128 H58         2.8940   -4.7670   -0.2080 h1        1 MOL      0.041308
    129 H59         1.5790   -4.5550   -2.2480 h1        1 MOL      0.100886
    130 H60         3.2400   -4.4980   -2.7260 h1        1 MOL      0.100886
    131 H61         2.0680   -2.9040   -3.7010 ho        1 MOL      0.379764
    132 N12         5.3830   -4.2570   -0.9600 n         1 MOL     -0.479744
    133 C43         6.8190   -4.0960   -0.6320 c3        1 MOL      0.101576
    134 C44         7.4280   -2.7250   -0.8940 c         1 MOL      0.513575
    135 O18         8.2350   -2.2780   -0.0760 o         1 MOL     -0.495839
    136 C45         7.5920   -5.2330   -1.2960 c3        1 MOL     -0.383542
    137 H62         5.0340   -5.0880   -1.4020 hn        1 MOL      0.292928
    138 H63         6.8510   -4.2600    0.4480 h1        1 MOL      0.095019
    139 H64         8.6730   -5.0990   -1.3650 hc        1 MOL      0.119685
    140 H65         7.2480   -6.1670   -0.8480 hc        1 MOL      0.119685
    141 H66         7.2010   -5.2620   -2.3180 hc        1 MOL      0.119685
    142 N13         7.2160   -2.0660   -2.0370 n         1 MOL     -0.378562
    143 C46         7.5230   -0.6840   -2.3970 c3        1 MOL      0.057366
    144 C47         6.9840    0.3240   -1.4050 c         1 MOL      0.392354
    145 O19         7.7930    1.2250   -1.0300 o         1 MOL     -0.527470
    146 C48         7.0680   -0.3810   -3.8110 c3        1 MOL     -0.273027
    147 H67         6.4070   -2.4130   -2.5420 hn        1 MOL      0.227117
    148 H68         8.6120   -0.6220   -2.3510 h1        1 MOL      0.119567
    149 H69         6.0150   -0.6590   -3.9490 hc        1 MOL      0.084221
    150 H70         7.2100    0.6800   -4.0260 hc        1 MOL      0.084221
    151 H71         7.6030   -0.9160   -4.5960 hc        1 MOL      0.084221
    152 N14         5.7690    0.2560   -0.8760 n         1 MOL     -0.248388
    153 C49         5.1240    1.0570    0.1710 c3        1 MOL     -0.230924
    154 C50         5.7710    0.8430    1.5370 c         1 MOL      0.532968
    155 O20         6.0080    1.7520    2.2920 o         1 MOL     -0.555192
    156 C51         3.6010    0.7180    0.1970 c3        1 MOL      0.101082
    157 C52         2.9450    0.8590   -1.1600 c3        1 MOL      0.009982
    158 C53         1.4240    0.6860   -1.0740 c         1 MOL      0.703471
    159 O21         0.6360    1.5580   -1.5460 o         1 MOL     -0.764629
    160 O22         0.8990   -0.2620   -0.4670 o         1 MOL     -0.764629
    161 H72         5.1850   -0.5460   -1.0780 hn        1 MOL      0.275629
    162 H73         5.3920    2.0810   -0.0760 h1        1 MOL      0.123788
    163 H74         3.0800    1.3980    0.8740 hc        1 MOL      0.007116
    164 H75         3.5060   -0.3200    0.5330 hc        1 MOL      0.007116
    165 H76         3.2860    0.0110   -1.7660 hc        1 MOL     -0.065650
    166 H77         3.2340    1.8360   -1.5270 hc        1 MOL     -0.065650
    167 N15         6.2710   -0.3700    1.8040 n         1 MOL     -0.082866
    168 C54         6.9590   -0.7700    3.0520 c3        1 MOL     -0.228394
    169 H78         7.2840    0.1210    3.5890 h1        1 MOL      0.100627
    170 H79         6.2730   -1.3410    3.6790 h1        1 MOL      0.100627
    171 H80         7.8260   -1.3850    2.8100 h1        1 MOL      0.100627
    172 H81         6.1770   -1.0380    1.0490 hn        1 MOL      0.086308
    173 Ca1        -1.5330   -0.0460   -1.4310 Ca        1 MOL      1.862204
    174 O23        -0.0340    0.4280   -4.1660 oh        1 MOL     -0.889305
    175 H82         0.8130    0.8370   -4.3210 ho        1 MOL      0.421545
    176 H83        -0.6780    1.1050   -4.3790 ho        1 MOL      0.421545
    177 O24        -0.4430   -2.0590   -2.8660 oh        1 MOL     -0.889305
    178 H84         0.4160   -2.4540   -2.7280 ho        1 MOL      0.421545
    179 H85        -0.4520   -1.8330   -3.8020 ho        1 MOL      0.421545
    180 O25        -2.7550   -0.4940   -3.9350 oh        1 MOL     -0.889305
    181 H86        -2.8970    0.1370   -4.6400 ho        1 MOL      0.421545
    182 H87        -2.8280   -1.3450   -4.3650 ho        1 MOL      0.421545
@<TRIPOS>BOND
     1    1    2 1   
     2    1    4 1   
     3    1    5 1   
     4    1    6 1   
     5    2    3 2   
     6    2    7 1   
     7    7    8 1   
     8    7   15 1   
     9    8    9 1   
    10    8   11 1   
    11    8   16 1   
    12    9   10 2   
    13    9   19 1   
    14   11   12 1   
    15   11   17 1   
    16   11   18 1   
    17   12   13 1   
    18   12   14 1   
    19   19   20 1   
    20   19   28 1   
    21   20   21 1   
    22   20   23 1   
    23   20   29 1   
    24   21   22 2   
    25   21   41 1   
    26   23   24 1   
    27   23   30 1   
    28   23   31 1   
    29   24   25 1   
    30   24   32 1   
    31   24   33 1   
    32   25   26 1   
    33   25   34 1   
    34   25   35 1   
    35   26   27 1   
    36   26   36 1   
    37   26   37 1   
    38   27   38 1   
    39   27   39 1   
    40   27   40 1   
    41   41   42 1   
    42   41   49 1   
    43   42   43 1   
    44   42   45 1   
    45   42   50 1   
    46   43   44 2   
    47   43   53 1   
    48   45   46 1   
    49   45   51 1   
    50   45   52 1   
    51   46   47 1   
    52   46   48 1   
    53   53   54 1   
    54   53   57 1   
    55   54   55 1   
    56   54   58 1   
    57   54   59 1   
    58   55   56 2   
    59   55   60 1   
    60   60   61 1   
    61   60   68 1   
    62   61   62 1   
    63   61   64 1   
    64   61   69 1   
    65   62   63 2   
    66   62   74 1   
    67   64   65 1   
    68   64   70 1   
    69   64   71 1   
    70   65   66 1   
    71   65   67 2   
    72   66   72 1   
    73   66   73 1   
    74   74   75 1   
    75   74   78 1   
    76   75   76 1   
    77   75   79 1   
    78   75   80 1   
    79   76   77 2   
    80   76   81 1   
    81   81   82 1   
    82   81   93 1   
    83   82   83 1   
    84   82   85 1   
    85   82   94 1   
    86   83   84 2   
    87   83  102 1   
    88   85   86 1   
    89   85   95 1   
    90   85   96 1   
    91   86   87 ar  
    92   86   88 ar  
    93   87   89 ar  
    94   87   97 1   
    95   88   90 ar  
    96   88   98 1   
    97   89   91 ar  
    98   89   99 1   
    99   90   91 ar  
   100   90  100 1   
   101   91   92 1   
   102   92  101 1   
   103  102  103 1   
   104  102  110 1   
   105  103  104 1   
   106  103  106 1   
   107  103  111 1   
   108  104  105 2   
   109  104  121 1   
   110  106  107 1   
   111  106  108 1   
   112  106  112 1   
   113  107  109 1   
   114  107  113 1   
   115  107  114 1   
   116  108  115 1   
   117  108  116 1   
   118  108  117 1   
   119  109  118 1   
   120  109  119 1   
   121  109  120 1   
   122  121  122 1   
   123  121  127 1   
   124  122  123 1   
   125  122  125 1   
   126  122  128 1   
   127  123  124 2   
   128  123  132 1   
   129  125  126 1   
   130  125  129 1   
   131  125  130 1   
   132  126  131 1   
   133  132  133 1   
   134  132  137 1   
   135  133  134 1   
   136  133  136 1   
   137  133  138 1   
   138  134  135 2   
   139  134  142 1   
   140  136  139 1   
   141  136  140 1   
   142  136  141 1   
   143  142  143 1   
   144  142  147 1   
   145  143  144 1   
   146  143  146 1   
   147  143  148 1   
   148  144  145 2   
   149  144  152 1   
   150  146  149 1   
   151  146  150 1   
   152  146  151 1   
   153  152  153 1   
   154  152  161 1   
   155  153  154 1   
   156  153  156 1   
   157  153  162 1   
   158  154  155 2   
   159  154  167 1   
   160  156  157 1   
   161  156  163 1   
   162  156  164 1   
   163  157  158 1   
   164  157  165 1   
   165  157  166 1   
   166  158  159 1   
   167  158  160 1   
   168  167  168 1   
   169  167  172 1   
   170  168  169 1   
   171  168  170 1   
   172  168  171 1   
   173  174  175 1   
   174  174  176 1   
   175  177  178 1   
   176  177  179 1   
   177  180  181 1   
   178  180  182 1   
@<TRIPOS>SUBSTRUCTURE
     1 MOL         1 TEMP              0 ****  ****    0 ROOT
