@<TRIPOS>MOLECULE
MOL
  175   173     1     0     0
SMALL
resp


@<TRIPOS>ATOM
      1 C1          0.2210    4.6080    5.2800 c3        1 MOL     -0.473790
      2 C2         -0.3080    4.2680    3.9200 c         1 MOL      0.718925
      3 O1          0.4610    3.9720    2.9800 o         1 MOL     -0.553510
      4 H1          0.9400    3.8490    5.5900 hc        1 MOL      0.119695
      5 H2          0.7130    5.5810    5.2470 hc        1 MOL      0.119695
      6 H3         -0.6020    4.6410    5.9940 hc        1 MOL      0.119695
      7 N1         -1.6440    4.2270    3.7420 n         1 MOL     -0.653132
      8 C3         -2.2790    3.6810    2.5070 c3        1 MOL      0.142291
      9 C4         -2.2470    4.7440    1.4080 c         1 MOL      0.702622
     10 O2         -2.3790    5.9240    1.7200 o         1 MOL     -0.603691
     11 C5         -3.7150    3.1450    2.8480 c3        1 MOL     -0.464074
     12 C6         -4.3360    2.3470    1.6750 c         1 MOL      0.817976
     13 O3         -5.5310    1.9230    1.7320 o         1 MOL     -0.687419
     14 O4         -3.5600    1.9420    0.7340 o         1 MOL     -0.687419
     15 H4         -2.1990    4.5070    4.5330 hn        1 MOL      0.345679
     16 H5         -1.7030    2.8490    2.1010 h1        1 MOL      0.087199
     17 H6         -4.3120    4.0450    2.9790 hc        1 MOL      0.110721
     18 H7         -3.6720    2.4540    3.6960 hc        1 MOL      0.110721
     19 N2         -2.1450    4.3990    0.1420 n         1 MOL     -0.704979
     20 C7         -2.2520    5.3460   -0.9790 c3        1 MOL      0.260440
     21 C8         -3.0400    4.7330   -2.1760 c         1 MOL      0.472055
     22 O5         -2.9440    5.2990   -3.2660 o         1 MOL     -0.569572
     23 C9         -0.8460    5.7470   -1.4700 c3        1 MOL     -0.333461
     24 H8         -1.7820    3.4870   -0.0920 hn        1 MOL      0.516213
     25 H9         -2.7640    6.2500   -0.6400 h1        1 MOL      0.028615
     26 H10        -0.1980    5.9360   -0.6210 hc        1 MOL      0.084755
     27 H11        -0.4640    4.9160   -2.0680 hc        1 MOL      0.084755
     28 H12        -0.8620    6.6670   -2.0650 hc        1 MOL      0.084755
     29 N3         -3.7560    3.6430   -1.9820 n         1 MOL     -0.334993
     30 C10        -4.6460    3.0550   -3.0450 c3        1 MOL      0.116140
     31 C11        -5.9260    2.4420   -2.5530 c         1 MOL      0.479136
     32 O6         -6.8960    2.5540   -3.3180 o         1 MOL     -0.567139
     33 C12        -3.8900    2.1100   -3.9500 c3        1 MOL     -0.081199
     34 C13        -3.0920    1.0240   -3.2490 c         1 MOL      0.636770
     35 O7         -3.5840    0.5840   -2.1550 o         1 MOL     -0.640656
     36 O8         -1.9060    0.8400   -3.6510 o         1 MOL     -0.640656
     37 H13        -3.5670    3.0980   -1.1440 hn        1 MOL      0.113711
     38 H14        -5.0410    3.9830   -3.4500 h1        1 MOL      0.046916
     39 H15        -3.2570    2.7080   -4.6140 hc        1 MOL      0.010749
     40 H16        -4.6830    1.6940   -4.5790 hc        1 MOL      0.010749
     41 N4         -5.9660    1.9110   -1.3070 n         1 MOL     -0.192603
     42 C14        -7.2180    1.3640   -0.7100 c3        1 MOL     -0.257972
     43 C15        -7.3490   -0.1470   -0.9260 c         1 MOL      0.550731
     44 O9         -8.3960   -0.6910   -0.7970 o         1 MOL     -0.595944
     45 H17        -5.0940    1.6820   -0.8570 hn        1 MOL      0.023350
     46 H18        -8.1050    1.8130   -1.1600 h1        1 MOL      0.141172
     47 H19        -7.3000    1.5470    0.3620 h1        1 MOL      0.141172
     48 N5         -6.2860   -0.7880   -1.4730 n         1 MOL     -0.314587
     49 C16        -6.3480   -2.1400   -2.0690 c3        1 MOL      0.078999
     50 C17        -6.3840   -3.2400   -0.9500 c         1 MOL      0.446546
     51 O10        -6.6330   -4.3950   -1.2850 o         1 MOL     -0.553191
     52 C18        -5.0590   -2.2470   -3.0040 c3        1 MOL     -0.222228
     53 C19        -3.7330   -2.2730   -2.2790 c         1 MOL      0.571672
     54 N6         -2.7460   -2.7120   -3.0110 n         1 MOL     -0.590377
     55 O11        -3.6060   -1.9570   -1.1160 o         1 MOL     -0.578672
     56 H20        -5.4430   -0.2520   -1.6400 hn        1 MOL      0.252591
     57 H21        -7.2610   -2.3050   -2.6450 h1        1 MOL      0.073558
     58 H22        -4.9520   -1.3690   -3.6400 hc        1 MOL      0.048392
     59 H23        -5.3190   -3.1680   -3.5410 hc        1 MOL      0.048392
     60 H24        -3.0080   -2.9100   -3.9620 hn        1 MOL      0.318623
     61 H25        -1.8700   -2.5920   -2.5220 hn        1 MOL      0.318623
     62 N7         -6.1290   -2.8400    0.3200 n         1 MOL     -0.170740
     63 C20        -6.2150   -3.6620    1.5230 c3        1 MOL     -0.254720
     64 C21        -4.8430   -4.1020    2.0580 c         1 MOL      0.537685
     65 O12        -4.7240   -4.6580    3.1280 o         1 MOL     -0.595425
     66 H26        -6.0320   -1.8530    0.4910 hn        1 MOL      0.201061
     67 H27        -6.8370   -4.5500    1.4800 h1        1 MOL      0.112137
     68 H28        -6.6100   -3.0470    2.3400 h1        1 MOL      0.112137
     69 N8         -3.7640   -3.9850    1.2670 n         1 MOL     -0.184263
     70 C22        -2.4190   -4.4900    1.6800 c3        1 MOL     -0.172390
     71 C23        -1.3970   -3.3660    1.7930 c         1 MOL      0.632402
     72 O13        -1.6070   -2.2590    1.2260 o         1 MOL     -0.645263
     73 C24        -1.8590   -5.5530    0.7200 c3        1 MOL      0.534244
     74 C25        -2.6350   -6.8760    0.7220 c3        1 MOL     -0.337344
     75 O14        -1.8320   -5.0810   -0.5710 oh        1 MOL     -0.662781
     76 H29        -3.8640   -3.6080    0.3270 hn        1 MOL      0.266087
     77 H30        -2.5620   -5.0160    2.6300 h1        1 MOL      0.081203
     78 H31        -0.7950   -5.6940    0.9450 h1        1 MOL     -0.074381
     79 H32        -0.9390   -4.7900   -0.7720 ho        1 MOL      0.417110
     80 H33        -2.5150   -7.4230    1.6590 hc        1 MOL      0.073919
     81 H34        -3.6740   -6.6850    0.4500 hc        1 MOL      0.073919
     82 H35        -2.1190   -7.4920   -0.0170 hc        1 MOL      0.073919
     83 N9         -0.2960   -3.5100    2.5480 n         1 MOL     -0.639235
     84 C26         0.8380   -2.6510    2.3330 c3        1 MOL      0.192849
     85 C27         1.3490   -3.0460    0.9530 c         1 MOL      0.489566
     86 O15         1.4860   -4.2110    0.5320 o         1 MOL     -0.546931
     87 C28         1.8370   -2.7010    3.5450 c3        1 MOL      0.051621
     88 C29         1.5820   -1.4400    4.3400 c3        1 MOL      0.209281
     89 C30         3.3340   -2.9140    3.2090 c3        1 MOL     -0.352007
     90 C31         2.1990   -1.5270    5.6920 c3        1 MOL     -0.311647
     91 H36        -0.1960   -4.4000    3.0050 hn        1 MOL      0.285848
     92 H37         0.5340   -1.6020    2.2140 h1        1 MOL      0.036465
     93 H38         1.6040   -3.5620    4.1850 hc        1 MOL      0.025677
     94 H39         0.5210   -1.2060    4.3240 hc        1 MOL     -0.048612
     95 H40         2.0710   -0.5950    3.8440 hc        1 MOL     -0.048612
     96 H41         3.8830   -2.9790    4.1460 hc        1 MOL      0.083283
     97 H42         3.5080   -3.8540    2.6830 hc        1 MOL      0.083283
     98 H43         3.6310   -1.9320    2.8300 hc        1 MOL      0.083283
     99 H44         3.2800   -1.6320    5.6710 hc        1 MOL      0.063797
    100 H45         1.8930   -0.5780    6.1580 hc        1 MOL      0.063797
    101 H46         1.8080   -2.4000    6.2160 hc        1 MOL      0.063797
    102 N10         1.7560   -1.9760    0.2560 n         1 MOL     -0.445763
    103 C32         2.5490   -2.1180   -0.9630 c3        1 MOL     -0.055788
    104 C33         3.9590   -1.4310   -0.7410 c         1 MOL      0.508548
    105 O16         4.1520   -0.7080    0.2260 o         1 MOL     -0.378435
    106 C34         1.7350   -1.4460   -2.1020 c3        1 MOL     -0.246205
    107 C35         0.3720   -2.0340   -2.2170 c         1 MOL      0.735974
    108 O17        -0.5360   -1.5360   -1.5050 o         1 MOL     -0.679135
    109 O18         0.1260   -2.8500   -3.1520 o         1 MOL     -0.679135
    110 H47         1.7460   -1.0430    0.6650 hn        1 MOL      0.496674
    111 H48         2.7390   -3.1440   -1.2560 h1        1 MOL      0.097558
    112 H49         2.2360   -1.5860   -3.0680 hc        1 MOL      0.077051
    113 H50         1.6050   -0.3860   -1.9310 hc        1 MOL      0.077051
    114 N11         4.9750   -1.7860   -1.6160 n         1 MOL     -0.689722
    115 C36         6.4250   -1.4630   -1.4530 c3        1 MOL      0.522661
    116 C37         6.5660    0.0940   -1.1940 c         1 MOL      0.217413
    117 O19         7.3310    0.3510   -0.3100 o         1 MOL     -0.479001
    118 C38         7.2880   -2.0400   -2.5380 c3        1 MOL     -0.332758
    119 C39         8.8210   -1.8270   -2.3700 ca        1 MOL      0.172683
    120 C40         9.4400   -2.4320   -1.2520 ca        1 MOL     -0.229834
    121 C41         9.5540   -1.0750   -3.3250 ca        1 MOL     -0.229834
    122 C42        10.7840   -2.2550   -1.1870 ca        1 MOL     -0.050101
    123 C43        10.9520   -0.9090   -3.1520 ca        1 MOL     -0.050101
    124 C44        11.5720   -1.4700   -2.0430 ca        1 MOL     -0.147156
    125 H51         4.6830   -2.3820   -2.3730 hn        1 MOL      0.328707
    126 H52         6.6710   -1.9400   -0.5030 h1        1 MOL      0.006660
    127 H53         7.0070   -1.6900   -3.5320 hc        1 MOL      0.085703
    128 H54         7.2150   -3.1260   -2.4980 hc        1 MOL      0.085703
    129 H55         8.9120   -3.1480   -0.6410 ha        1 MOL      0.140827
    130 H56         9.0120   -0.5470   -4.0950 ha        1 MOL      0.140827
    131 H57        11.2800   -2.8250   -0.4230 ha        1 MOL      0.087776
    132 H58        11.4980   -0.3800   -3.9190 ha        1 MOL      0.087776
    133 H59        12.6350   -1.3880   -1.9090 ha        1 MOL      0.106022
    134 N12         5.8670    1.0140   -1.8690 n         1 MOL     -0.036888
    135 C45         5.9950    2.4380   -1.4500 c3        1 MOL      0.004071
    136 C46         5.6180    2.8050   -0.0380 c         1 MOL      0.293489
    137 O20         5.8970    3.8870    0.4160 o         1 MOL     -0.514689
    138 C47         5.1190    3.1600   -2.5080 c3        1 MOL     -0.095758
    139 C48         5.0250    2.1810   -3.6750 c3        1 MOL      0.150391
    140 C49         5.1330    0.8170   -3.0780 c3        1 MOL     -0.055600
    141 H60         7.0100    2.8290   -1.5560 h1        1 MOL      0.074889
    142 H61         4.0890    3.2540   -2.1600 hc        1 MOL      0.045177
    143 H62         5.5760    4.1000   -2.8330 hc        1 MOL      0.045177
    144 H63         4.1510    2.3940   -4.2940 hc        1 MOL     -0.020682
    145 H64         5.9200    2.3060   -4.2860 hc        1 MOL     -0.020682
    146 H65         4.1820    0.3870   -2.7840 h1        1 MOL      0.029104
    147 H66         5.4450    0.1830   -3.9060 h1        1 MOL      0.029104
    148 N13         4.8190    1.9620    0.6460 n         1 MOL      0.152112
    149 C50         4.1380    2.2990    1.8840 c3        1 MOL     -0.304174
    150 C51         4.8860    1.6370    3.0480 c         1 MOL      0.624369
    151 O21         5.0670    2.2500    4.0590 o         1 MOL     -0.583296
    152 C52         2.6450    1.7980    1.7890 c3        1 MOL      0.249823
    153 C53         1.8130    2.2630    0.4800 c3        1 MOL     -0.375892
    154 C54         0.4160    1.6480    0.4310 c         1 MOL      0.664139
    155 O22         0.2430    0.5740    0.9520 o         1 MOL     -0.725102
    156 O23        -0.5110    2.2200   -0.2220 o         1 MOL     -0.725102
    157 H67         4.6030    1.0400    0.3090 hn        1 MOL     -0.049756
    158 H68         4.0710    3.3670    2.0600 h1        1 MOL      0.129168
    159 H69         2.0350    2.0700    2.6460 hc        1 MOL     -0.030550
    160 H70         2.6760    0.7020    1.7890 hc        1 MOL     -0.030550
    161 H71         2.3140    2.0490   -0.4670 hc        1 MOL      0.117000
    162 H72         1.7880    3.3380    0.6650 hc        1 MOL      0.117000
    163 N14         5.3890    0.4460    2.9110 n         1 MOL     -0.273744
    164 C55         6.6170   -0.0820    3.5410 c3        1 MOL     -0.211274
    165 H73         6.5350   -1.1640    3.6450 h1        1 MOL      0.090034
    166 H74         7.4780    0.1590    2.9170 h1        1 MOL      0.090034
    167 H75         6.7450    0.3700    4.5250 h1        1 MOL      0.090034
    168 H76         5.0460   -0.1870    2.1950 hn        1 MOL      0.221781
    169 Ca1        -2.1420   -0.0290   -0.1300 Ca        1 MOL      1.665016
    170 O24        -1.7720    0.4640    2.6200 oh        1 MOL     -0.719632
    171 H77        -0.8720    0.6760    2.3920 ho        1 MOL      0.367723
    172 H78        -1.8100    0.5750    3.5690 ho        1 MOL      0.367723
    173 O25        -4.3630   -0.5550    1.2500 oh        1 MOL     -0.719632
    174 H79        -4.3600   -0.7190    2.1970 ho        1 MOL      0.367723
    175 H80        -4.6910    0.3370    1.1660 ho        1 MOL      0.367723
@<TRIPOS>BOND
     1    1    2 1   
     2    1    4 1   
     3    1    5 1   
     4    1    6 1   
     5    2    3 2   
     6    2    7 1   
     7    7    8 1   
     8    7   15 1   
     9    8    9 1   
    10    8   11 1   
    11    8   16 1   
    12    9   10 2   
    13    9   19 1   
    14   11   12 1   
    15   11   17 1   
    16   11   18 1   
    17   12   13 1   
    18   12   14 1   
    19   19   20 1   
    20   19   24 1   
    21   20   21 1   
    22   20   23 1   
    23   20   25 1   
    24   21   22 2   
    25   21   29 1   
    26   23   26 1   
    27   23   27 1   
    28   23   28 1   
    29   29   30 1   
    30   29   37 1   
    31   30   31 1   
    32   30   33 1   
    33   30   38 1   
    34   31   32 2   
    35   31   41 1   
    36   33   34 1   
    37   33   39 1   
    38   33   40 1   
    39   34   35 1   
    40   34   36 1   
    41   41   42 1   
    42   41   45 1   
    43   42   43 1   
    44   42   46 1   
    45   42   47 1   
    46   43   44 2   
    47   43   48 1   
    48   48   49 1   
    49   48   56 1   
    50   49   50 1   
    51   49   52 1   
    52   49   57 1   
    53   50   51 2   
    54   50   62 1   
    55   52   53 1   
    56   52   58 1   
    57   52   59 1   
    58   53   54 1   
    59   53   55 2   
    60   54   60 1   
    61   54   61 1   
    62   62   63 1   
    63   62   66 1   
    64   63   64 1   
    65   63   67 1   
    66   63   68 1   
    67   64   65 2   
    68   64   69 1   
    69   69   70 1   
    70   69   76 1   
    71   70   71 1   
    72   70   73 1   
    73   70   77 1   
    74   71   72 2   
    75   71   83 1   
    76   73   74 1   
    77   73   75 1   
    78   73   78 1   
    79   74   80 1   
    80   74   81 1   
    81   74   82 1   
    82   75   79 1   
    83   83   84 1   
    84   83   91 1   
    85   84   85 1   
    86   84   87 1   
    87   84   92 1   
    88   85   86 2   
    89   85  102 1   
    90   87   88 1   
    91   87   89 1   
    92   87   93 1   
    93   88   90 1   
    94   88   94 1   
    95   88   95 1   
    96   89   96 1   
    97   89   97 1   
    98   89   98 1   
    99   90   99 1   
   100   90  100 1   
   101   90  101 1   
   102  102  103 1   
   103  102  110 1   
   104  103  104 1   
   105  103  106 1   
   106  103  111 1   
   107  104  105 2   
   108  104  114 1   
   109  106  107 1   
   110  106  112 1   
   111  106  113 1   
   112  107  108 1   
   113  107  109 1   
   114  114  115 1   
   115  114  125 1   
   116  115  116 1   
   117  115  118 1   
   118  115  126 1   
   119  116  117 2   
   120  116  134 1   
   121  118  119 1   
   122  118  127 1   
   123  118  128 1   
   124  119  120 ar  
   125  119  121 ar  
   126  120  122 ar  
   127  120  129 1   
   128  121  123 ar  
   129  121  130 1   
   130  122  124 ar  
   131  122  131 1   
   132  123  124 ar  
   133  123  132 1   
   134  124  133 1   
   135  134  135 1   
   136  134  140 1   
   137  135  136 1   
   138  135  138 1   
   139  135  141 1   
   140  136  137 2   
   141  136  148 1   
   142  138  139 1   
   143  138  142 1   
   144  138  143 1   
   145  139  140 1   
   146  139  144 1   
   147  139  145 1   
   148  140  146 1   
   149  140  147 1   
   150  148  149 1   
   151  148  157 1   
   152  149  150 1   
   153  149  152 1   
   154  149  158 1   
   155  150  151 2   
   156  150  163 1   
   157  152  153 1   
   158  152  159 1   
   159  152  160 1   
   160  153  154 1   
   161  153  161 1   
   162  153  162 1   
   163  154  155 1   
   164  154  156 1   
   165  163  164 1   
   166  163  168 1   
   167  164  165 1   
   168  164  166 1   
   169  164  167 1   
   170  170  171 1   
   171  170  172 1   
   172  173  174 1   
   173  173  175 1   
@<TRIPOS>SUBSTRUCTURE
     1 MOL         1 TEMP              0 ****  ****    0 ROOT
