@<TRIPOS>MOLECULE
MOL
  175   173     1     0     0
SMALL
resp


@<TRIPOS>ATOM
      1 C1          0.9810    4.1270    5.3370 c3        1 MOL     -0.421032
      2 C2          0.3210    4.0430    3.9150 c         1 MOL      0.693272
      3 O1          1.0000    4.3930    2.9070 o         1 MOL     -0.562222
      4 H1          0.2030    4.2450    6.0910 hc        1 MOL      0.106224
      5 H2          1.5400    3.2130    5.5330 hc        1 MOL      0.106224
      6 H3          1.6560    4.9830    5.3750 hc        1 MOL      0.106224
      7 N1         -0.9800    3.7880    3.8840 n         1 MOL     -0.597381
      8 C3         -1.7240    3.4220    2.6610 c3        1 MOL      0.221795
      9 C4         -1.7670    4.4850    1.5860 c         1 MOL      0.561196
     10 O2         -2.3300    5.5720    1.8100 o         1 MOL     -0.587510
     11 C5         -3.1370    3.0000    3.0730 c3        1 MOL     -0.454029
     12 C6         -3.9480    2.4560    1.9060 c         1 MOL      0.862083
     13 O3         -5.1780    2.3210    2.0820 o         1 MOL     -0.692660
     14 O4         -3.4400    2.0060    0.8500 o         1 MOL     -0.692660
     15 H4         -1.5130    3.7020    4.7320 hn        1 MOL      0.334418
     16 H5         -1.3490    2.4750    2.2660 h1        1 MOL      0.047398
     17 H6         -3.6330    3.8540    3.5250 hc        1 MOL      0.096632
     18 H7         -3.0280    2.2500    3.8510 hc        1 MOL      0.096632
     19 N2         -1.3000    4.2490    0.3430 n         1 MOL     -0.394919
     20 C7         -1.4060    5.1730   -0.8280 c3        1 MOL      0.291152
     21 C8         -2.7340    5.0630   -1.6330 c         1 MOL      0.430414
     22 O5         -3.0040    6.0170   -2.3910 o         1 MOL     -0.556693
     23 C9         -0.1500    4.9930   -1.7470 c3        1 MOL     -0.351732
     24 H8         -0.6760    3.4650    0.2310 hn        1 MOL      0.196335
     25 H9         -1.3890    6.1890   -0.4320 h1        1 MOL      0.003145
     26 H10        -0.3060    4.0880   -2.3280 hc        1 MOL      0.100072
     27 H11        -0.1120    5.8710   -2.3950 hc        1 MOL      0.100072
     28 H12         0.7400    4.9130   -1.1110 hc        1 MOL      0.100072
     29 N3         -3.5300    3.9780   -1.5300 n         1 MOL     -0.345937
     30 C10        -4.4540    3.7020   -2.6330 c3        1 MOL      0.018435
     31 C11        -5.7520    2.8450   -2.2630 c         1 MOL      0.414456
     32 O6         -6.6390    2.6470   -3.0970 o         1 MOL     -0.536551
     33 C12        -3.7230    2.9890   -3.7460 c3        1 MOL     -0.178236
     34 C13        -2.9880    1.6650   -3.3270 c         1 MOL      0.795135
     35 O7         -3.2430    1.0470   -2.2640 o         1 MOL     -0.711629
     36 O8         -2.1820    1.2580   -4.1700 o         1 MOL     -0.711629
     37 H13        -3.4730    3.3550   -0.7260 hn        1 MOL      0.199750
     38 H14        -4.8690    4.6310   -3.0080 h1        1 MOL      0.091820
     39 H15        -2.9550    3.6200   -4.1940 hc        1 MOL      0.041575
     40 H16        -4.4640    2.6110   -4.4530 hc        1 MOL      0.041575
     41 N4         -5.9080    2.3460   -1.0180 n         1 MOL     -0.220366
     42 C14        -7.1290    1.6750   -0.5530 c3        1 MOL     -0.138591
     43 C15        -7.4120    0.3210   -1.2200 c         1 MOL      0.437081
     44 O9         -8.5410   -0.2100   -1.1200 o         1 MOL     -0.590218
     45 H17        -5.1740    2.5580   -0.3480 hn        1 MOL      0.169011
     46 H18        -7.9910    2.3370   -0.5900 h1        1 MOL      0.110326
     47 H19        -7.0180    1.4490    0.5100 h1        1 MOL      0.110326
     48 N5         -6.4120   -0.3520   -1.8230 n         1 MOL     -0.175096
     49 C16        -6.4310   -1.8030   -2.2120 c3        1 MOL     -0.020769
     50 C17        -6.4770   -2.8230   -1.0740 c         1 MOL      0.439315
     51 O10        -6.5460   -4.0150   -1.2690 o         1 MOL     -0.534617
     52 C18        -5.2710   -2.1010   -3.1760 c3        1 MOL     -0.332128
     53 C19        -3.9030   -2.1310   -2.4620 c         1 MOL      0.684056
     54 N6         -2.8070   -2.5000   -3.1420 n         1 MOL     -0.685596
     55 O11        -3.8050   -1.8480   -1.2780 o         1 MOL     -0.642597
     56 H20        -5.5340    0.1500   -1.8100 hn        1 MOL      0.186070
     57 H21        -7.3360   -1.9500   -2.7950 h1        1 MOL      0.116581
     58 H22        -5.2960   -1.2530   -3.8650 hc        1 MOL      0.107231
     59 H23        -5.3570   -3.0900   -3.6260 hc        1 MOL      0.107231
     60 H24        -2.9380   -2.7420   -4.1110 hn        1 MOL      0.339658
     61 H25        -1.9110   -2.3470   -2.6890 hn        1 MOL      0.339658
     62 N7         -6.4330   -2.4270    0.1650 n         1 MOL     -0.190034
     63 C20        -6.5620   -3.2840    1.4150 c3        1 MOL     -0.095311
     64 C21        -5.4220   -4.2410    1.7270 c         1 MOL      0.493583
     65 O12        -5.4930   -5.2340    2.5300 o         1 MOL     -0.589594
     66 H26        -6.3020   -1.4330    0.2490 hn        1 MOL      0.180966
     67 H27        -7.4990   -3.8470    1.4630 h1        1 MOL      0.076749
     68 H28        -6.6130   -2.6070    2.2670 h1        1 MOL      0.076749
     69 N8         -4.2260   -3.9820    1.1430 n         1 MOL     -0.299703
     70 C22        -2.8640   -4.5720    1.4380 c3        1 MOL      0.010011
     71 C23        -1.8580   -3.4270    1.5070 c         1 MOL      0.236127
     72 O13        -1.8670   -2.5230    0.6570 o         1 MOL     -0.333288
     73 C24        -2.3800   -5.5540    0.3370 c3        1 MOL      0.517164
     74 C25        -2.9400   -6.9360    0.5960 c3        1 MOL     -0.407362
     75 O14        -2.5860   -5.0250   -0.9850 oh        1 MOL     -0.645974
     76 H29        -4.2660   -3.2000    0.4930 hn        1 MOL      0.273891
     77 H30        -2.9110   -5.1660    2.3400 h1        1 MOL      0.079129
     78 H31        -1.3000   -5.6570    0.4410 h1        1 MOL     -0.028097
     79 H32        -2.1200   -4.1990   -1.1090 ho        1 MOL      0.393773
     80 H33        -2.6120   -7.6130   -0.2000 hc        1 MOL      0.098710
     81 H34        -2.6410   -7.3900    1.5380 hc        1 MOL      0.098710
     82 H35        -4.0350   -6.9390    0.6200 hc        1 MOL      0.098710
     83 N9         -0.8180   -3.5080    2.3910 n         1 MOL     -0.509922
     84 C26         0.4580   -2.7010    2.1860 c3        1 MOL      0.117501
     85 C27         1.2700   -3.1830    0.9570 c         1 MOL      0.399054
     86 O15         1.3200   -4.3700    0.6260 o         1 MOL     -0.549901
     87 C28         1.2480   -2.6300    3.5330 c3        1 MOL     -0.031038
     88 C29         0.5810   -1.5620    4.4380 c3        1 MOL      0.238022
     89 C30         2.8170   -2.4770    3.3990 c3        1 MOL     -0.146106
     90 C31         1.1420   -1.4310    5.8440 c3        1 MOL     -0.355179
     91 H36        -0.7060   -4.3420    2.9400 hn        1 MOL      0.295409
     92 H37         0.1850   -1.6830    1.8940 h1        1 MOL      0.041128
     93 H38         1.0500   -3.5120    4.1460 hc        1 MOL      0.014708
     94 H39        -0.4720   -1.8320    4.5050 hc        1 MOL     -0.034922
     95 H40         0.5870   -0.5480    4.0250 hc        1 MOL     -0.034922
     96 H41         3.2010   -3.3250    2.8250 hc        1 MOL      0.026305
     97 H42         3.0530   -1.6250    2.7640 hc        1 MOL      0.026305
     98 H43         3.4190   -2.5690    4.2990 hc        1 MOL      0.026305
     99 H44         1.2830   -2.4770    6.1500 hc        1 MOL      0.077348
    100 H45         2.1810   -1.1100    5.7640 hc        1 MOL      0.077348
    101 H46         0.4440   -0.8330    6.4340 hc        1 MOL      0.077348
    102 N10         1.7150   -2.1710    0.2570 n         1 MOL     -0.027802
    103 C32         2.5530   -2.1400   -0.9050 c3        1 MOL     -0.002899
    104 C33         4.0610   -1.7940   -0.6550 c         1 MOL      0.420736
    105 O16         4.3450   -1.0980    0.3180 o         1 MOL     -0.397309
    106 C34         1.8240   -1.2120   -1.9340 c3        1 MOL     -0.250165
    107 C35         0.4330   -1.7600   -2.3450 c         1 MOL      0.680031
    108 O17        -0.5210   -1.4120   -1.6380 o         1 MOL     -0.658532
    109 O18         0.3350   -2.5130   -3.3320 o         1 MOL     -0.658532
    110 H47         1.2730   -1.2870    0.4910 hn        1 MOL      0.148877
    111 H48         2.6430   -3.1470   -1.3030 h1        1 MOL      0.043292
    112 H49         2.4350   -1.1570   -2.8330 hc        1 MOL      0.080250
    113 H50         1.7370   -0.1910   -1.5660 hc        1 MOL      0.080250
    114 N11         4.9590   -2.0870   -1.5670 n         1 MOL     -0.529337
    115 C36         6.3540   -1.6880   -1.3860 c3        1 MOL      0.323189
    116 C37         6.4930   -0.1070   -1.0920 c         1 MOL      0.350913
    117 O19         6.9970    0.2030   -0.0020 o         1 MOL     -0.501976
    118 C38         7.2560   -2.2100   -2.5290 c3        1 MOL     -0.234868
    119 C39         8.7850   -2.1240   -2.2110 ca        1 MOL      0.027569
    120 C40         9.3620   -2.6470   -0.9920 ca        1 MOL     -0.131979
    121 C41         9.6600   -1.3720   -3.0420 ca        1 MOL     -0.131979
    122 C42        10.7420   -2.5540   -0.7950 ca        1 MOL     -0.100982
    123 C43        11.0040   -1.1590   -2.7800 ca        1 MOL     -0.100982
    124 C44        11.5830   -1.7730   -1.6680 ca        1 MOL     -0.127318
    125 H51         4.7640   -2.7360   -2.3100 hn        1 MOL      0.313863
    126 H52         6.6870   -2.1840   -0.4720 h1        1 MOL      0.058820
    127 H53         7.1260   -1.6480   -3.4510 hc        1 MOL      0.081448
    128 H54         7.0350   -3.2640   -2.6620 hc        1 MOL      0.081448
    129 H55         8.7580   -3.1510   -0.2480 ha        1 MOL      0.108773
    130 H56         9.3740   -1.0900   -4.0460 ha        1 MOL      0.108773
    131 H57        11.3020   -3.0220    0.0030 ha        1 MOL      0.105338
    132 H58        11.6190   -0.6520   -3.5020 ha        1 MOL      0.105338
    133 H59        12.6550   -1.6550   -1.5620 ha        1 MOL      0.107495
    134 N12         5.9670    0.8510   -1.8770 n         1 MOL     -0.138700
    135 C45         6.2290    2.2560   -1.5310 c3        1 MOL     -0.030738
    136 C46         5.6730    2.7430   -0.1700 c         1 MOL      0.374828
    137 O20         6.1880    3.6740    0.4620 o         1 MOL     -0.502356
    138 C47         5.7000    3.0900   -2.7420 c3        1 MOL     -0.040711
    139 C48         5.6430    2.0980   -3.8180 c3        1 MOL      0.049336
    140 C49         5.2020    0.8200   -3.1090 c3        1 MOL     -0.043708
    141 H60         7.2860    2.4770   -1.4430 h1        1 MOL      0.087679
    142 H61         4.6840    3.3730   -2.4730 hc        1 MOL      0.036495
    143 H62         6.3060    3.9720   -2.9530 hc        1 MOL      0.036495
    144 H63         4.8890    2.3710   -4.5670 hc        1 MOL      0.008879
    145 H64         6.5700    1.9830   -4.3690 hc        1 MOL      0.008879
    146 H65         4.1390    0.7300   -2.9020 h1        1 MOL      0.043922
    147 H66         5.4140   -0.0660   -3.7090 h1        1 MOL      0.043922
    148 N13         4.6870    1.9610    0.3770 n         1 MOL     -0.165538
    149 C50         4.1750    2.1650    1.7330 c3        1 MOL     -0.097413
    150 C51         4.9650    1.4300    2.8180 c         1 MOL      0.481703
    151 O21         5.0640    1.8950    3.9510 o         1 MOL     -0.571344
    152 C52         2.6960    1.6470    1.7510 c3        1 MOL      0.003089
    153 C53         1.9380    2.0170    0.4640 c3        1 MOL      0.011267
    154 C54         0.5370    1.3200    0.4650 c         1 MOL      0.678739
    155 O22         0.0950    0.4910    1.2650 o         1 MOL     -0.753050
    156 O23        -0.2790    1.6350   -0.4310 o         1 MOL     -0.753050
    157 H67         4.5030    1.0430   -0.0130 hn        1 MOL      0.175008
    158 H68         4.2660    3.2340    1.9050 h1        1 MOL      0.118799
    159 H69         2.1750    2.0450    2.6310 hc        1 MOL      0.018265
    160 H70         2.6990    0.5630    1.8920 hc        1 MOL      0.018265
    161 H71         2.4420    1.6730   -0.4370 hc        1 MOL      0.014596
    162 H72         1.7820    3.0970    0.3610 hc        1 MOL      0.014596
    163 N14         5.5510    0.2170    2.5940 n         1 MOL     -0.074427
    164 C55         6.5450   -0.3890    3.4730 c3        1 MOL     -0.335904
    165 H73         7.4130   -0.6910    2.8860 h1        1 MOL      0.113976
    166 H74         6.8520    0.3350    4.2280 h1        1 MOL      0.113976
    167 H75         6.1150   -1.2630    3.9610 h1        1 MOL      0.113976
    168 H76         5.3960   -0.2120    1.6940 hn        1 MOL      0.130417
    169 Ca1        -2.2190    0.0600   -0.1490 Ca        1 MOL      1.586556
    170 O24        -1.9990   -0.0260    2.7550 oh        1 MOL     -0.691372
    171 H77        -1.1150    0.0910    2.4150 ho        1 MOL      0.341680
    172 H78        -1.9240    0.0790    3.7000 ho        1 MOL      0.341680
    173 O25        -4.6290   -0.4150    1.1920 oh        1 MOL     -0.691372
    174 H79        -4.3570   -0.8730    1.9800 ho        1 MOL      0.341680
    175 H80        -4.8240    0.4730    1.4860 ho        1 MOL      0.341680
@<TRIPOS>BOND
     1    1    2 1   
     2    1    4 1   
     3    1    5 1   
     4    1    6 1   
     5    2    3 2   
     6    2    7 1   
     7    7    8 1   
     8    7   15 1   
     9    8    9 1   
    10    8   11 1   
    11    8   16 1   
    12    9   10 2   
    13    9   19 1   
    14   11   12 1   
    15   11   17 1   
    16   11   18 1   
    17   12   13 1   
    18   12   14 1   
    19   19   20 1   
    20   19   24 1   
    21   20   21 1   
    22   20   23 1   
    23   20   25 1   
    24   21   22 2   
    25   21   29 1   
    26   23   26 1   
    27   23   27 1   
    28   23   28 1   
    29   29   30 1   
    30   29   37 1   
    31   30   31 1   
    32   30   33 1   
    33   30   38 1   
    34   31   32 2   
    35   31   41 1   
    36   33   34 1   
    37   33   39 1   
    38   33   40 1   
    39   34   35 1   
    40   34   36 1   
    41   41   42 1   
    42   41   45 1   
    43   42   43 1   
    44   42   46 1   
    45   42   47 1   
    46   43   44 2   
    47   43   48 1   
    48   48   49 1   
    49   48   56 1   
    50   49   50 1   
    51   49   52 1   
    52   49   57 1   
    53   50   51 2   
    54   50   62 1   
    55   52   53 1   
    56   52   58 1   
    57   52   59 1   
    58   53   54 1   
    59   53   55 2   
    60   54   60 1   
    61   54   61 1   
    62   62   63 1   
    63   62   66 1   
    64   63   64 1   
    65   63   67 1   
    66   63   68 1   
    67   64   65 2   
    68   64   69 1   
    69   69   70 1   
    70   69   76 1   
    71   70   71 1   
    72   70   73 1   
    73   70   77 1   
    74   71   72 2   
    75   71   83 1   
    76   73   74 1   
    77   73   75 1   
    78   73   78 1   
    79   74   80 1   
    80   74   81 1   
    81   74   82 1   
    82   75   79 1   
    83   83   84 1   
    84   83   91 1   
    85   84   85 1   
    86   84   87 1   
    87   84   92 1   
    88   85   86 2   
    89   85  102 1   
    90   87   88 1   
    91   87   89 1   
    92   87   93 1   
    93   88   90 1   
    94   88   94 1   
    95   88   95 1   
    96   89   96 1   
    97   89   97 1   
    98   89   98 1   
    99   90   99 1   
   100   90  100 1   
   101   90  101 1   
   102  102  103 1   
   103  102  110 1   
   104  103  104 1   
   105  103  106 1   
   106  103  111 1   
   107  104  105 2   
   108  104  114 1   
   109  106  107 1   
   110  106  112 1   
   111  106  113 1   
   112  107  108 1   
   113  107  109 1   
   114  114  115 1   
   115  114  125 1   
   116  115  116 1   
   117  115  118 1   
   118  115  126 1   
   119  116  117 2   
   120  116  134 1   
   121  118  119 1   
   122  118  127 1   
   123  118  128 1   
   124  119  120 ar  
   125  119  121 ar  
   126  120  122 ar  
   127  120  129 1   
   128  121  123 ar  
   129  121  130 1   
   130  122  124 ar  
   131  122  131 1   
   132  123  124 ar  
   133  123  132 1   
   134  124  133 1   
   135  134  135 1   
   136  134  140 1   
   137  135  136 1   
   138  135  138 1   
   139  135  141 1   
   140  136  137 2   
   141  136  148 1   
   142  138  139 1   
   143  138  142 1   
   144  138  143 1   
   145  139  140 1   
   146  139  144 1   
   147  139  145 1   
   148  140  146 1   
   149  140  147 1   
   150  148  149 1   
   151  148  157 1   
   152  149  150 1   
   153  149  152 1   
   154  149  158 1   
   155  150  151 2   
   156  150  163 1   
   157  152  153 1   
   158  152  159 1   
   159  152  160 1   
   160  153  154 1   
   161  153  161 1   
   162  153  162 1   
   163  154  155 1   
   164  154  156 1   
   165  163  164 1   
   166  163  168 1   
   167  164  165 1   
   168  164  166 1   
   169  164  167 1   
   170  170  171 1   
   171  170  172 1   
   172  173  174 1   
   173  173  175 1   
@<TRIPOS>SUBSTRUCTURE
     1 MOL         1 TEMP              0 ****  ****    0 ROOT
