@<TRIPOS>MOLECULE
MOL
  179   176     1     0     0
SMALL
resp


@<TRIPOS>ATOM
      1 C1          0.4920    3.5280    6.3070 c3        1 MOL     -0.377191
      2 C2          0.2980    2.9390    4.9520 c         1 MOL      0.719189
      3 O1          1.2230    2.9800    4.1460 o         1 MOL     -0.575286
      4 H1          0.7710    4.5770    6.2100 hc        1 MOL      0.097321
      5 H2         -0.4360    3.4500    6.8740 hc        1 MOL      0.097321
      6 H3          1.2830    2.9890    6.8290 hc        1 MOL      0.097321
      7 N1         -0.9120    2.5270    4.5590 n         1 MOL     -0.581525
      8 C3         -1.4190    2.3390    3.2570 c3        1 MOL     -0.026803
      9 C4         -1.6510    3.6580    2.4460 c         1 MOL      0.654860
     10 O2         -2.1380    4.6620    2.9900 o         1 MOL     -0.591190
     11 C5         -2.8030    1.5770    3.4330 c3        1 MOL      0.123350
     12 C6         -3.2380    0.8480    2.1600 c         1 MOL      0.527250
     13 O3         -2.7620    1.1860    1.0500 o         1 MOL     -0.625860
     14 O4         -4.1930    0.0510    2.3010 o         1 MOL     -0.625860
     15 H4         -1.6350    2.6090    5.2660 hn        1 MOL      0.304868
     16 H5         -0.7840    1.6930    2.6560 h1        1 MOL      0.079188
     17 H6         -3.6140    2.1510    3.8900 hc        1 MOL     -0.025417
     18 H7         -2.6340    0.8050    4.1970 hc        1 MOL     -0.025417
     19 N2         -1.2430    3.6800    1.1700 n         1 MOL     -0.295571
     20 C7         -1.3440    4.8730    0.2930 c3        1 MOL     -0.398387
     21 C8         -2.7550    5.0830   -0.3540 c         1 MOL      0.651606
     22 O5         -3.0290    6.1840   -0.8560 o         1 MOL     -0.585880
     23 C9         -0.1960    4.6900   -0.7400 c3        1 MOL      0.509297
     24 C10         0.1420    6.0010   -1.4760 c3        1 MOL     -0.104759
     25 C11         1.4290    5.9240   -2.3730 c3        1 MOL      0.044337
     26 C12         1.5580    7.1820   -3.2780 c3        1 MOL      0.042184
     27 N3          2.7700    7.1500   -4.2090 n4        1 MOL     -0.279822
     28 H8         -0.8450    2.8240    0.7970 hn        1 MOL      0.146692
     29 H9         -1.0900    5.7260    0.9050 h1        1 MOL      0.161312
     30 H10        -0.4560    3.9490   -1.4900 hc        1 MOL     -0.053508
     31 H11         0.7070    4.4470   -0.1780 hc        1 MOL     -0.053508
     32 H12         0.2420    6.7930   -0.7220 hc        1 MOL      0.020510
     33 H13        -0.6650    6.1830   -2.1830 hc        1 MOL      0.020510
     34 H14         1.3620    5.0220   -2.9740 hc        1 MOL     -0.016485
     35 H15         2.2110    5.8020   -1.6110 hc        1 MOL     -0.016485
     36 H16         1.5970    8.0970   -2.6820 hx        1 MOL      0.078577
     37 H17         0.6490    7.2030   -3.8710 hx        1 MOL      0.078577
     38 H18         2.5640    6.4490   -4.9130 hn        1 MOL      0.302834
     39 H19         3.0080    7.9650   -4.7420 hn        1 MOL      0.302834
     40 H20         3.6140    6.8340   -3.7630 hn        1 MOL      0.302834
     41 N4         -3.6700    4.0780   -0.4090 n         1 MOL     -0.394047
     42 C13        -4.9750    4.0150   -1.1980 c3        1 MOL      0.029071
     43 C14        -6.1280    3.2090   -0.5800 c         1 MOL      0.394491
     44 O6         -7.2440    3.1870   -1.1610 o         1 MOL     -0.520523
     45 C15        -4.6400    3.5310   -2.5810 c3        1 MOL     -0.352558
     46 C16        -3.5570    2.4830   -2.5880 c         1 MOL      0.796912
     47 O7         -2.6120    2.5700   -3.3520 o         1 MOL     -0.742280
     48 O8         -3.6300    1.4970   -1.8090 o         1 MOL     -0.742280
     49 H21        -3.5230    3.3590    0.2880 hn        1 MOL      0.195931
     50 H22        -5.3410    5.0390   -1.2450 h1        1 MOL      0.126560
     51 H23        -4.3150    4.5000   -2.9770 hc        1 MOL      0.103129
     52 H24        -5.5190    3.1530   -3.0980 hc        1 MOL      0.103129
     53 N5         -5.9950    2.6650    0.5910 n         1 MOL     -0.229509
     54 C17        -7.0930    1.8950    1.1650 c3        1 MOL     -0.203919
     55 C18        -7.3360    0.5170    0.5510 c         1 MOL      0.484225
     56 O9         -8.4160   -0.0190    0.8730 o         1 MOL     -0.559972
     57 H25        -5.1610    2.7960    1.1550 hn        1 MOL      0.241964
     58 H26        -7.9030    2.6180    1.1280 h1        1 MOL      0.131347
     59 H27        -6.8890    1.7160    2.2170 h1        1 MOL      0.131347
     60 N6         -6.3770   -0.1010   -0.1640 n         1 MOL     -0.132366
     61 C19        -6.6860   -1.4320   -0.7800 c3        1 MOL     -0.035811
     62 C20        -6.2990   -2.5940    0.1880 c         1 MOL      0.427497
     63 O10        -6.6900   -3.6950   -0.1890 o         1 MOL     -0.513359
     64 C21        -6.1140   -1.5930   -2.1340 c3        1 MOL     -0.094705
     65 C22        -4.6120   -1.5850   -2.3250 c         1 MOL      0.600092
     66 N7         -4.1360   -2.0140   -3.4670 n         1 MOL     -0.569169
     67 O11        -3.9000   -1.3060   -1.4220 o         1 MOL     -0.578402
     68 H28        -5.4630    0.2980   -0.2810 hn        1 MOL      0.168147
     69 H29        -7.7600   -1.5460   -0.8840 h1        1 MOL      0.110265
     70 H30        -6.4810   -0.7260   -2.6990 hc        1 MOL      0.040462
     71 H31        -6.4410   -2.4810   -2.6740 hc        1 MOL      0.040462
     72 H32        -4.8160   -2.1480   -4.1990 hn        1 MOL      0.281882
     73 H33        -3.1760   -1.9280   -3.7520 hn        1 MOL      0.281882
     74 N8         -5.6130   -2.3010    1.3590 n         1 MOL     -0.107429
     75 C23        -5.4200   -3.2200    2.4980 c3        1 MOL     -0.235285
     76 C24        -3.9890   -3.8970    2.5340 c         1 MOL      0.584186
     77 O12        -3.8060   -4.7270    3.3640 o         1 MOL     -0.550876
     78 H34        -5.1150   -1.4230    1.4790 hn        1 MOL      0.087062
     79 H35        -6.2820   -3.8910    2.4030 h1        1 MOL      0.121189
     80 H36        -5.5780   -2.5540    3.3510 h1        1 MOL      0.121189
     81 N9         -3.0450   -3.5270    1.6340 n         1 MOL     -0.238736
     82 C25        -1.6720   -4.1240    1.4960 c3        1 MOL      0.092169
     83 C26        -0.6580   -3.0210    1.0950 c         1 MOL      0.313771
     84 O13        -0.9730   -1.9020    0.6760 o         1 MOL     -0.554367
     85 C27        -1.6410   -5.4790    0.7190 c3        1 MOL     -0.121311
     86 C28        -2.0990   -5.5000   -0.6840 ca        1 MOL     -0.017665
     87 C29        -1.0900   -5.6280   -1.6610 ca        1 MOL     -0.029365
     88 C30        -3.4770   -5.3710   -1.0390 ca        1 MOL     -0.029365
     89 C31        -1.4150   -5.4590   -3.0550 ca        1 MOL     -0.387240
     90 C32        -3.7970   -5.4130   -2.4010 ca        1 MOL     -0.387240
     91 C33        -2.7720   -5.4390   -3.4710 ca        1 MOL      0.412043
     92 O14        -3.1390   -5.1640   -4.7150 oh        1 MOL     -0.547759
     93 H37        -3.3810   -2.8420    0.9620 hn        1 MOL      0.174263
     94 H38        -1.4280   -4.4820    2.4920 h1        1 MOL      0.047702
     95 H39        -2.2160   -6.2210    1.2790 hc        1 MOL      0.061267
     96 H40        -0.6190   -5.8430    0.8000 hc        1 MOL      0.061267
     97 H41        -0.0680   -5.8470   -1.3850 ha        1 MOL      0.105977
     98 H42        -4.2190   -5.2920   -0.2530 ha        1 MOL      0.105977
     99 H43        -0.7400   -5.3520   -3.8900 ha        1 MOL      0.164922
    100 H44        -4.8550   -5.4380   -2.5890 ha        1 MOL      0.164922
    101 H45        -4.0880   -5.1880   -4.8250 ho        1 MOL      0.426573
    102 N10         0.6030   -3.3680    1.4430 n         1 MOL     -0.131730
    103 C34         1.8720   -2.6370    1.2820 c3        1 MOL     -0.528989
    104 C35         3.0690   -3.5270    0.7370 c         1 MOL      0.367398
    105 O15         3.1090   -4.7590    0.9780 o         1 MOL     -0.480773
    106 C36         2.2550   -1.8480    2.5440 c3        1 MOL      0.278307
    107 C37         2.7940   -2.7400    3.6530 c3        1 MOL     -0.153585
    108 C38         1.0950   -0.9550    2.9820 c3        1 MOL     -0.120903
    109 C39         3.0520   -2.0070    5.0100 c3        1 MOL     -0.258755
    110 H46         0.6110   -4.3010    1.8470 hn        1 MOL      0.267707
    111 H47         1.7800   -1.9300    0.4520 h1        1 MOL      0.304444
    112 H48         2.9770   -1.0980    2.2490 hc        1 MOL     -0.014406
    113 H49         3.7010   -3.1600    3.2230 hc        1 MOL      0.073625
    114 H50         2.0200   -3.4850    3.8180 hc        1 MOL      0.073625
    115 H51         1.5750   -0.1660    3.5400 hc        1 MOL      0.053290
    116 H52         0.5740   -0.4560    2.1700 hc        1 MOL      0.053290
    117 H53         0.5530   -1.6040    3.6740 hc        1 MOL      0.053290
    118 H54         3.6390   -2.7220    5.5900 hc        1 MOL      0.076306
    119 H55         3.6040   -1.1060    4.7530 hc        1 MOL      0.076306
    120 H56         2.1390   -1.8480    5.5740 hc        1 MOL      0.076306
    121 N11         3.9790   -2.8810   -0.0200 n         1 MOL     -0.013791
    122 C40         5.2330   -3.3120   -0.5190 c3        1 MOL      0.011785
    123 C41         6.3950   -2.4530    0.0460 c         1 MOL      0.475677
    124 O16         6.1700   -1.4850    0.7630 o         1 MOL     -0.440415
    125 C42         5.2300   -3.4130   -2.0230 c3        1 MOL     -0.045405
    126 O17         5.1280   -2.0910   -2.5010 oh        1 MOL     -0.502049
    127 H57         3.7980   -1.9250   -0.2790 hn        1 MOL      0.016368
    128 H58         5.2340   -4.3660   -0.2220 h1        1 MOL      0.044105
    129 H59         4.3480   -3.9370   -2.3710 h1        1 MOL      0.089950
    130 H60         6.1910   -3.8110   -2.3450 h1        1 MOL      0.089950
    131 H61         4.2000   -1.8950   -2.3870 ho        1 MOL      0.387179
    132 N12         7.6540   -2.7580   -0.2360 n         1 MOL     -0.449276
    133 C43         8.8420   -2.0680    0.3120 c3        1 MOL      0.091384
    134 C44         8.7810   -0.6480   -0.3370 c         1 MOL      0.514534
    135 O18         9.1830    0.2910    0.4140 o         1 MOL     -0.508202
    136 C45        10.0930   -2.8740   -0.0470 c3        1 MOL     -0.245087
    137 H62         7.8110   -3.5520   -0.8400 hn        1 MOL      0.275964
    138 H63         8.8350   -1.9640    1.3890 h1        1 MOL      0.119733
    139 H64        10.3350   -2.8410   -1.1160 hc        1 MOL      0.082207
    140 H65        10.9100   -2.4320    0.5290 hc        1 MOL      0.082207
    141 H66         9.9580   -3.9220    0.1990 hc        1 MOL      0.082207
    142 N13         8.2810   -0.4420   -1.5770 n         1 MOL     -0.459333
    143 C46         8.1160    0.8590   -2.2560 c3        1 MOL      0.006551
    144 C47         7.0680    1.7780   -1.5690 c         1 MOL      0.400624
    145 O19         7.2990    2.9510   -1.2910 o         1 MOL     -0.489579
    146 C48         7.8800    0.8070   -3.7460 c3        1 MOL     -0.183285
    147 H67         8.0240   -1.2430   -2.1410 hn        1 MOL      0.324714
    148 H68         9.0420    1.3930   -2.0130 h1        1 MOL      0.115658
    149 H69         7.0130    0.1780   -3.9650 hc        1 MOL      0.066905
    150 H70         7.7820    1.7980   -4.1860 hc        1 MOL      0.066905
    151 H71         8.6590    0.3980   -4.3780 hc        1 MOL      0.066905
    152 N14         5.9260    1.1710   -1.1920 n         1 MOL     -0.206623
    153 C49         4.8780    1.7700   -0.3980 c3        1 MOL     -0.226385
    154 C50         5.2720    2.0890    1.0520 c         1 MOL      0.536633
    155 O20         4.8880    3.1050    1.6210 o         1 MOL     -0.547454
    156 C51         3.6090    0.8800   -0.4210 c3        1 MOL      0.014615
    157 C52         2.3330    1.6970   -0.0970 c3        1 MOL      0.118268
    158 C53         0.9660    1.0700   -0.4210 c         1 MOL      0.463202
    159 O21         0.8880    0.2470   -1.3620 o         1 MOL     -0.675359
    160 O22         0.0220    1.2900    0.3780 o         1 MOL     -0.675359
    161 H72         5.8090    0.2070   -1.4840 hn        1 MOL      0.147077
    162 H73         4.7120    2.7430   -0.8570 h1        1 MOL      0.101889
    163 H74         3.9040    0.0580    0.2330 hc        1 MOL     -0.007367
    164 H75         3.4720    0.3250   -1.3440 hc        1 MOL     -0.007367
    165 H76         2.3780    2.6230   -0.6640 hc        1 MOL      0.019191
    166 H77         2.4020    1.9520    0.9540 hc        1 MOL      0.019191
    167 N15         6.1290    1.2500    1.6390 n         1 MOL     -0.090573
    168 C54         6.7850    1.4370    2.9520 c3        1 MOL     -0.156015
    169 H78         7.0870    2.4790    3.0610 h1        1 MOL      0.075779
    170 H79         6.0860    1.1780    3.7480 h1        1 MOL      0.075779
    171 H80         7.6640    0.7960    3.0150 h1        1 MOL      0.075779
    172 H81         6.3890    0.3590    1.2370 hn        1 MOL      0.145205
    173 Ca1        -1.7060   -0.1090   -1.0240 Ca        1 MOL      1.737995
    174 O23        -1.5550    0.0110   -3.7410 oh        1 MOL     -0.856139
    175 H82        -2.2320    0.4880   -4.2110 ho        1 MOL      0.418195
    176 H83        -0.7330    0.3360   -4.0900 ho        1 MOL      0.418195
    177 O24        -0.7680   -2.3300   -2.2270 oh        1 MOL     -0.856139
    178 H84        -0.8110   -2.3870   -3.1830 ho        1 MOL      0.418195
    179 H85        -0.6690   -3.2300   -1.9230 ho        1 MOL      0.418195
@<TRIPOS>BOND
     1    1    2 1   
     2    1    4 1   
     3    1    5 1   
     4    1    6 1   
     5    2    3 2   
     6    2    7 1   
     7    7    8 1   
     8    7   15 1   
     9    8    9 1   
    10    8   11 1   
    11    8   16 1   
    12    9   10 2   
    13    9   19 1   
    14   11   12 1   
    15   11   17 1   
    16   11   18 1   
    17   12   13 1   
    18   12   14 1   
    19   19   20 1   
    20   19   28 1   
    21   20   21 1   
    22   20   23 1   
    23   20   29 1   
    24   21   22 2   
    25   21   41 1   
    26   23   24 1   
    27   23   30 1   
    28   23   31 1   
    29   24   25 1   
    30   24   32 1   
    31   24   33 1   
    32   25   26 1   
    33   25   34 1   
    34   25   35 1   
    35   26   27 1   
    36   26   36 1   
    37   26   37 1   
    38   27   38 1   
    39   27   39 1   
    40   27   40 1   
    41   41   42 1   
    42   41   49 1   
    43   42   43 1   
    44   42   45 1   
    45   42   50 1   
    46   43   44 2   
    47   43   53 1   
    48   45   46 1   
    49   45   51 1   
    50   45   52 1   
    51   46   47 1   
    52   46   48 1   
    53   53   54 1   
    54   53   57 1   
    55   54   55 1   
    56   54   58 1   
    57   54   59 1   
    58   55   56 2   
    59   55   60 1   
    60   60   61 1   
    61   60   68 1   
    62   61   62 1   
    63   61   64 1   
    64   61   69 1   
    65   62   63 2   
    66   62   74 1   
    67   64   65 1   
    68   64   70 1   
    69   64   71 1   
    70   65   66 1   
    71   65   67 2   
    72   66   72 1   
    73   66   73 1   
    74   74   75 1   
    75   74   78 1   
    76   75   76 1   
    77   75   79 1   
    78   75   80 1   
    79   76   77 2   
    80   76   81 1   
    81   81   82 1   
    82   81   93 1   
    83   82   83 1   
    84   82   85 1   
    85   82   94 1   
    86   83   84 2   
    87   83  102 1   
    88   85   86 1   
    89   85   95 1   
    90   85   96 1   
    91   86   87 ar  
    92   86   88 ar  
    93   87   89 ar  
    94   87   97 1   
    95   88   90 ar  
    96   88   98 1   
    97   89   91 ar  
    98   89   99 1   
    99   90   91 ar  
   100   90  100 1   
   101   91   92 1   
   102   92  101 1   
   103  102  103 1   
   104  102  110 1   
   105  103  104 1   
   106  103  106 1   
   107  103  111 1   
   108  104  105 2   
   109  104  121 1   
   110  106  107 1   
   111  106  108 1   
   112  106  112 1   
   113  107  109 1   
   114  107  113 1   
   115  107  114 1   
   116  108  115 1   
   117  108  116 1   
   118  108  117 1   
   119  109  118 1   
   120  109  119 1   
   121  109  120 1   
   122  121  122 1   
   123  121  127 1   
   124  122  123 1   
   125  122  125 1   
   126  122  128 1   
   127  123  124 2   
   128  123  132 1   
   129  125  126 1   
   130  125  129 1   
   131  125  130 1   
   132  126  131 1   
   133  132  133 1   
   134  132  137 1   
   135  133  134 1   
   136  133  136 1   
   137  133  138 1   
   138  134  135 2   
   139  134  142 1   
   140  136  139 1   
   141  136  140 1   
   142  136  141 1   
   143  142  143 1   
   144  142  147 1   
   145  143  144 1   
   146  143  146 1   
   147  143  148 1   
   148  144  145 2   
   149  144  152 1   
   150  146  149 1   
   151  146  150 1   
   152  146  151 1   
   153  152  153 1   
   154  152  161 1   
   155  153  154 1   
   156  153  156 1   
   157  153  162 1   
   158  154  155 2   
   159  154  167 1   
   160  156  157 1   
   161  156  163 1   
   162  156  164 1   
   163  157  158 1   
   164  157  165 1   
   165  157  166 1   
   166  158  159 1   
   167  158  160 1   
   168  167  168 1   
   169  167  172 1   
   170  168  169 1   
   171  168  170 1   
   172  168  171 1   
   173  174  175 1   
   174  174  176 1   
   175  177  178 1   
   176  177  179 1   
@<TRIPOS>SUBSTRUCTURE
     1 MOL         1 TEMP              0 ****  ****    0 ROOT
