@<TRIPOS>MOLECULE
MOL
  176   174     1     0     0
SMALL
resp


@<TRIPOS>ATOM
      1 C1          0.8830    4.1480    6.3190 c3        1 MOL     -0.341653
      2 C2          0.6520    3.4430    4.8890 c         1 MOL      0.640645
      3 O1          1.5070    2.6940    4.3190 o         1 MOL     -0.593858
      4 H1          0.3260    3.6080    7.0850 hc        1 MOL      0.093050
      5 H2          1.9450    4.1340    6.5650 hc        1 MOL      0.093050
      6 H3          0.5350    5.1800    6.2760 hc        1 MOL      0.093050
      7 N1         -0.4190    3.7800    4.2740 n         1 MOL     -0.479524
      8 C3         -0.8090    3.4450    2.9360 c3        1 MOL      0.082177
      9 C4         -1.4280    4.5380    2.1130 c         1 MOL      0.483439
     10 O2         -2.1550    5.3360    2.6800 o         1 MOL     -0.546003
     11 C5         -1.6640    2.1850    3.0660 c3        1 MOL     -0.024501
     12 C6         -2.1720    1.6330    1.8390 c         1 MOL      1.089268
     13 O3         -2.1060    0.3580    1.6910 o         1 MOL     -0.933289
     14 O4         -2.7680    2.3210    0.9750 o         1 MOL     -0.933289
     15 H4         -1.1350    4.3200    4.7530 hn        1 MOL      0.280465
     16 H5          0.1390    3.2220    2.4440 h1        1 MOL      0.103835
     17 H6         -2.5380    2.2740    3.7270 hc        1 MOL     -0.006099
     18 H7         -0.9940    1.4800    3.5400 hc        1 MOL     -0.006099
     19 N2         -1.1560    4.5750    0.7830 n         1 MOL     -0.344985
     20 C7         -1.4880    5.7140   -0.0500 c3        1 MOL     -0.072526
     21 C8         -2.6680    5.4620   -0.9490 c         1 MOL      0.534913
     22 O5         -3.0860    6.3540   -1.6460 o         1 MOL     -0.583219
     23 C9         -0.1570    6.3100   -0.6430 c3        1 MOL     -0.051701
     24 C10         0.4920    5.2750   -1.6530 c3        1 MOL      0.188045
     25 C11        -0.0690    5.1260   -3.0520 c3        1 MOL     -0.052014
     26 C12         1.1500    4.7360   -4.0060 c3        1 MOL      0.133001
     27 N3          0.7750    4.7870   -5.4600 n4        1 MOL     -0.362925
     28 H8         -0.5200    3.8270    0.5430 hn        1 MOL      0.196479
     29 H9         -1.7810    6.5540    0.5800 h1        1 MOL      0.123908
     30 H10         0.5350    6.5100    0.1700 hc        1 MOL      0.051612
     31 H11        -0.2940    7.2800   -1.1140 hc        1 MOL      0.051612
     32 H12         0.7540    4.3010   -1.2470 hc        1 MOL     -0.056212
     33 H13         1.4710    5.7380   -1.7830 hc        1 MOL     -0.056212
     34 H14        -0.5160    6.0870   -3.3130 hc        1 MOL      0.003918
     35 H15        -0.8290    4.3430   -3.1140 hc        1 MOL      0.003918
     36 H16         1.5650    3.7550   -3.7480 hx        1 MOL      0.047690
     37 H17         1.9030    5.5180   -3.9360 hx        1 MOL      0.047690
     38 H18         0.4600    5.7360   -5.6210 hn        1 MOL      0.324244
     39 H19         1.5340    4.4950   -6.0580 hn        1 MOL      0.324244
     40 H20        -0.0630    4.2270   -5.5770 hn        1 MOL      0.324244
     41 N4         -3.2910    4.2790   -0.9660 n         1 MOL     -0.263458
     42 C13        -4.5220    4.0210   -1.7630 c3        1 MOL     -0.201620
     43 C14        -5.6030    3.2910   -0.9410 c         1 MOL      0.498715
     44 O6         -6.7770    3.1870   -1.3510 o         1 MOL     -0.558831
     45 C15        -4.2150    3.1620   -3.0360 c3        1 MOL     -0.066543
     46 C16        -3.4040    1.9130   -2.5580 c         1 MOL      0.773300
     47 O7         -2.2020    1.7640   -2.8340 o         1 MOL     -0.781704
     48 O8         -3.9600    1.0570   -1.8790 o         1 MOL     -0.781704
     49 H21        -2.8890    3.5020   -0.4550 hn        1 MOL      0.329197
     50 H22        -4.9360    5.0020   -2.0220 h1        1 MOL      0.163992
     51 H23        -3.6520    3.6360   -3.8480 hc        1 MOL      0.033342
     52 H24        -5.0640    2.7840   -3.5950 hc        1 MOL      0.033342
     53 N5         -5.2830    2.7300    0.2170 n         1 MOL     -0.289452
     54 C17        -6.2580    2.0180    1.0670 c3        1 MOL     -0.020458
     55 C18        -6.8130    0.6790    0.5570 c         1 MOL      0.461561
     56 O9         -7.9040    0.3110    0.9740 o         1 MOL     -0.556517
     57 H25        -4.3000    2.7220    0.4470 hn        1 MOL      0.217857
     58 H26        -6.9830    2.7270    1.4790 h1        1 MOL      0.075125
     59 H27        -5.6990    1.8130    1.9830 h1        1 MOL      0.075125
     60 N6         -6.1040    0.0060   -0.3700 n         1 MOL     -0.132964
     61 C19        -6.4840   -1.3420   -0.9150 c3        1 MOL     -0.018284
     62 C20        -6.3980   -2.4650    0.1590 c         1 MOL      0.375552
     63 O10        -7.0670   -3.4780    0.0410 o         1 MOL     -0.509450
     64 C21        -5.7090   -1.7680   -2.2210 c3        1 MOL     -0.309877
     65 C22        -4.2270   -2.1470   -1.9730 c         1 MOL      0.772854
     66 N7         -3.5930   -2.7740   -2.8670 n         1 MOL     -0.559353
     67 O11        -3.6060   -1.9030   -0.9500 o         1 MOL     -0.777831
     68 H28        -5.2890    0.4440   -0.7930 hn        1 MOL      0.152585
     69 H29        -7.5140   -1.2860   -1.2730 h1        1 MOL      0.115821
     70 H30        -5.7070   -0.9080   -2.8900 hc        1 MOL      0.116333
     71 H31        -6.2520   -2.5690   -2.7370 hc        1 MOL      0.116333
     72 H32        -3.9860   -2.9280   -3.7870 hn        1 MOL      0.276489
     73 H33        -2.6260   -2.9350   -2.6420 hn        1 MOL      0.276489
     74 N8         -5.7630   -2.2030    1.2900 n         1 MOL     -0.060872
     75 C23        -5.6800   -3.0370    2.5010 c3        1 MOL     -0.213180
     76 C24        -4.3760   -3.8190    2.6660 c         1 MOL      0.544212
     77 O12        -4.2930   -4.7340    3.5080 o         1 MOL     -0.550877
     78 H34        -5.5000   -1.2340    1.3680 hn        1 MOL      0.130615
     79 H35        -6.5310   -3.7260    2.4900 h1        1 MOL      0.114405
     80 H36        -5.7550   -2.4000    3.3780 h1        1 MOL      0.114405
     81 N9         -3.4100   -3.4610    1.7800 n         1 MOL     -0.309628
     82 C25        -2.0300   -3.9900    1.7870 c3        1 MOL      0.060747
     83 C26        -0.9520   -3.0240    1.3500 c         1 MOL      0.339666
     84 O13        -1.1680   -2.2050    0.4200 o         1 MOL     -0.447932
     85 C27        -1.9060   -5.4170    1.1660 c3        1 MOL     -0.084200
     86 C28        -2.3130   -5.5130   -0.2660 ca        1 MOL     -0.046663
     87 C29        -1.3320   -5.3050   -1.2770 ca        1 MOL     -0.041632
     88 C30        -3.6660   -5.9240   -0.5750 ca        1 MOL     -0.041632
     89 C31        -1.6540   -5.5660   -2.6540 ca        1 MOL     -0.373620
     90 C32        -3.9230   -6.2310   -1.9270 ca        1 MOL     -0.373620
     91 C33        -2.9400   -6.0440   -2.9270 ca        1 MOL      0.433548
     92 O14        -3.1670   -6.4880   -4.2430 oh        1 MOL     -0.509916
     93 H37        -3.6040   -2.8420    1.0050 hn        1 MOL      0.265168
     94 H38        -1.8710   -4.1500    2.8520 h1        1 MOL      0.048886
     95 H39        -2.5160   -6.0160    1.8420 hc        1 MOL      0.058586
     96 H40        -0.8900   -5.7640    1.3840 hc        1 MOL      0.058586
     97 H41        -0.3380   -4.9680   -1.0230 ha        1 MOL      0.145800
     98 H42        -4.3950   -6.0820    0.2100 ha        1 MOL      0.145800
     99 H43        -0.9110   -5.3330   -3.4040 ha        1 MOL      0.175554
    100 H44        -4.8810   -6.6620   -2.1610 ha        1 MOL      0.175554
    101 H45        -2.5080   -6.1370   -4.8380 ho        1 MOL      0.334235
    102 N10         0.1800   -3.0850    2.0230 n         1 MOL     -0.195419
    103 C34         1.4870   -2.4360    1.7340 c3        1 MOL     -0.305922
    104 C35         2.5100   -3.3330    1.0270 c         1 MOL      0.480886
    105 O15         2.5280   -4.5770    1.0020 o         1 MOL     -0.550360
    106 C36         2.0290   -1.6430    2.9270 c3        1 MOL      0.138116
    107 C37         2.4900   -2.6640    3.9670 c3        1 MOL     -0.047570
    108 C38         1.0090   -0.6270    3.4900 c3        1 MOL      0.032037
    109 C39         3.3200   -2.0250    5.1260 c3        1 MOL     -0.254732
    110 H46         0.1430   -3.5810    2.9030 hn        1 MOL      0.226671
    111 H47         1.3570   -1.6570    0.9940 h1        1 MOL      0.227200
    112 H48         2.9770   -1.2110    2.5930 hc        1 MOL     -0.005499
    113 H49         3.1800   -3.3790    3.5110 hc        1 MOL      0.040702
    114 H50         1.6440   -3.1400    4.4640 hc        1 MOL      0.040702
    115 H51         1.5220    0.0150    4.2000 hc        1 MOL      0.012540
    116 H52         0.6000   -0.1390    2.6060 hc        1 MOL      0.012540
    117 H53         0.2840   -1.2050    4.0550 hc        1 MOL      0.012540
    118 H54         3.7760   -2.8270    5.7200 hc        1 MOL      0.070842
    119 H55         4.0680   -1.4290    4.5960 hc        1 MOL      0.070842
    120 H56         2.6490   -1.5590    5.8480 hc        1 MOL      0.070842
    121 N11         3.5740   -2.6870    0.4340 n         1 MOL     -0.018997
    122 C40         4.6950   -3.2670   -0.2970 c3        1 MOL     -0.025970
    123 C41         5.9840   -2.5430    0.0740 c         1 MOL      0.381513
    124 O16         5.8990   -1.5390    0.7580 o         1 MOL     -0.403485
    125 C42         4.5400   -3.0970   -1.8500 c3        1 MOL     -0.048572
    126 O17         4.3420   -1.7010   -2.0830 oh        1 MOL     -0.370561
    127 H57         3.4810   -1.6860    0.3780 hn        1 MOL     -0.003835
    128 H58         4.7590   -4.3030    0.0220 h1        1 MOL      0.096642
    129 H59         3.6270   -3.6220   -2.1360 h1        1 MOL      0.051770
    130 H60         5.4070   -3.4840   -2.3790 h1        1 MOL      0.051770
    131 H61         4.4500   -1.5960   -3.0280 ho        1 MOL      0.350731
    132 N12         7.1180   -2.9880   -0.4420 n         1 MOL     -0.336940
    133 C43         8.4990   -2.4170   -0.2620 c3        1 MOL      0.113617
    134 C44         8.6880   -0.9730   -0.8190 c         1 MOL      0.397696
    135 O18         9.3560   -0.1170   -0.2940 o         1 MOL     -0.500649
    136 C45         9.5150   -3.3690   -0.8220 c3        1 MOL     -0.288910
    137 H62         7.0910   -3.8490   -0.9670 hn        1 MOL      0.258260
    138 H63         8.7100   -2.3890    0.8030 h1        1 MOL      0.099234
    139 H64         9.1780   -3.5890   -1.8350 hc        1 MOL      0.091156
    140 H65        10.4430   -2.8290   -0.9740 hc        1 MOL      0.091156
    141 H66         9.6370   -4.2820   -0.2390 hc        1 MOL      0.091156
    142 N13         8.0380   -0.6920   -1.8720 n         1 MOL     -0.230617
    143 C46         7.9210    0.6230   -2.4560 c3        1 MOL      0.111180
    144 C47         6.9640    1.6580   -1.8090 c         1 MOL      0.398891
    145 O19         7.0330    2.8720   -1.8310 o         1 MOL     -0.482801
    146 C48         7.4650    0.3750   -3.9090 c3        1 MOL     -0.356711
    147 H67         7.4730   -1.4160   -2.3030 hn        1 MOL      0.225829
    148 H68         8.8380    1.2090   -2.4130 h1        1 MOL      0.093671
    149 H69         7.3960    1.3870   -4.3150 hc        1 MOL      0.097225
    150 H70         8.1380   -0.3090   -4.4290 hc        1 MOL      0.097225
    151 H71         6.4300    0.0420   -3.9580 hc        1 MOL      0.097225
    152 N14         5.9010    1.0490   -1.1700 n         1 MOL     -0.051917
    153 C49         4.8850    1.7270   -0.3500 c3        1 MOL     -0.094460
    154 C50         5.3440    2.0310    1.0450 c         1 MOL      0.509907
    155 O20         5.1960    3.1300    1.6200 o         1 MOL     -0.538648
    156 C51         3.5230    1.0280   -0.3020 c3        1 MOL     -0.044763
    157 C52         2.3410    1.9980   -0.3100 c3        1 MOL      0.044371
    158 C53         0.9450    1.3550   -0.4590 c         1 MOL      0.793426
    159 O21        -0.0290    1.9520   -0.0240 o         1 MOL     -0.832252
    160 O22         0.8030    0.1700   -0.8430 o         1 MOL     -0.832252
    161 H72         5.7900    0.0500   -1.1320 hn        1 MOL     -0.128986
    162 H73         4.7710    2.7240   -0.7570 h1        1 MOL      0.052690
    163 H74         3.5340    0.4840    0.6420 hc        1 MOL      0.020627
    164 H75         3.4750    0.3080   -1.1210 hc        1 MOL      0.020627
    165 H76         2.3800    2.7030   -1.1380 hc        1 MOL      0.013596
    166 H77         2.4160    2.6100    0.5860 hc        1 MOL      0.013596
    167 N15         6.1670    1.0860    1.5570 n         1 MOL     -0.177461
    168 C54         6.9780    1.2570    2.7770 c3        1 MOL     -0.065831
    169 H78         6.4610    0.8050    3.6230 h1        1 MOL      0.053751
    170 H79         7.9450    0.7720    2.6420 h1        1 MOL      0.053751
    171 H80         7.1280    2.3200    2.9690 h1        1 MOL      0.053751
    172 H81         6.3540    0.2800    0.9850 hn        1 MOL      0.179369
    173 Ca1        -1.7890    0.0330   -0.8150 Ca        1 MOL      1.815990
    174 O23        -0.7340   -1.5860   -2.6980 oh        1 MOL     -0.957369
    175 H82         0.1990   -1.6970   -2.5100 ho        1 MOL      0.447637
    176 H83        -0.7930   -1.6800   -3.6520 ho        1 MOL      0.447637
@<TRIPOS>BOND
     1    1    2 1   
     2    1    4 1   
     3    1    5 1   
     4    1    6 1   
     5    2    3 2   
     6    2    7 1   
     7    7    8 1   
     8    7   15 1   
     9    8    9 1   
    10    8   11 1   
    11    8   16 1   
    12    9   10 2   
    13    9   19 1   
    14   11   12 1   
    15   11   17 1   
    16   11   18 1   
    17   12   13 1   
    18   12   14 1   
    19   19   20 1   
    20   19   28 1   
    21   20   21 1   
    22   20   23 1   
    23   20   29 1   
    24   21   22 2   
    25   21   41 1   
    26   23   24 1   
    27   23   30 1   
    28   23   31 1   
    29   24   25 1   
    30   24   32 1   
    31   24   33 1   
    32   25   26 1   
    33   25   34 1   
    34   25   35 1   
    35   26   27 1   
    36   26   36 1   
    37   26   37 1   
    38   27   38 1   
    39   27   39 1   
    40   27   40 1   
    41   41   42 1   
    42   41   49 1   
    43   42   43 1   
    44   42   45 1   
    45   42   50 1   
    46   43   44 2   
    47   43   53 1   
    48   45   46 1   
    49   45   51 1   
    50   45   52 1   
    51   46   47 1   
    52   46   48 1   
    53   53   54 1   
    54   53   57 1   
    55   54   55 1   
    56   54   58 1   
    57   54   59 1   
    58   55   56 2   
    59   55   60 1   
    60   60   61 1   
    61   60   68 1   
    62   61   62 1   
    63   61   64 1   
    64   61   69 1   
    65   62   63 2   
    66   62   74 1   
    67   64   65 1   
    68   64   70 1   
    69   64   71 1   
    70   65   66 1   
    71   65   67 2   
    72   66   72 1   
    73   66   73 1   
    74   74   75 1   
    75   74   78 1   
    76   75   76 1   
    77   75   79 1   
    78   75   80 1   
    79   76   77 2   
    80   76   81 1   
    81   81   82 1   
    82   81   93 1   
    83   82   83 1   
    84   82   85 1   
    85   82   94 1   
    86   83   84 2   
    87   83  102 1   
    88   85   86 1   
    89   85   95 1   
    90   85   96 1   
    91   86   87 ar  
    92   86   88 ar  
    93   87   89 ar  
    94   87   97 1   
    95   88   90 ar  
    96   88   98 1   
    97   89   91 ar  
    98   89   99 1   
    99   90   91 ar  
   100   90  100 1   
   101   91   92 1   
   102   92  101 1   
   103  102  103 1   
   104  102  110 1   
   105  103  104 1   
   106  103  106 1   
   107  103  111 1   
   108  104  105 2   
   109  104  121 1   
   110  106  107 1   
   111  106  108 1   
   112  106  112 1   
   113  107  109 1   
   114  107  113 1   
   115  107  114 1   
   116  108  115 1   
   117  108  116 1   
   118  108  117 1   
   119  109  118 1   
   120  109  119 1   
   121  109  120 1   
   122  121  122 1   
   123  121  127 1   
   124  122  123 1   
   125  122  125 1   
   126  122  128 1   
   127  123  124 2   
   128  123  132 1   
   129  125  126 1   
   130  125  129 1   
   131  125  130 1   
   132  126  131 1   
   133  132  133 1   
   134  132  137 1   
   135  133  134 1   
   136  133  136 1   
   137  133  138 1   
   138  134  135 2   
   139  134  142 1   
   140  136  139 1   
   141  136  140 1   
   142  136  141 1   
   143  142  143 1   
   144  142  147 1   
   145  143  144 1   
   146  143  146 1   
   147  143  148 1   
   148  144  145 2   
   149  144  152 1   
   150  146  149 1   
   151  146  150 1   
   152  146  151 1   
   153  152  153 1   
   154  152  161 1   
   155  153  154 1   
   156  153  156 1   
   157  153  162 1   
   158  154  155 2   
   159  154  167 1   
   160  156  157 1   
   161  156  163 1   
   162  156  164 1   
   163  157  158 1   
   164  157  165 1   
   165  157  166 1   
   166  158  159 1   
   167  158  160 1   
   168  167  168 1   
   169  167  172 1   
   170  168  169 1   
   171  168  170 1   
   172  168  171 1   
   173  174  175 1   
   174  174  176 1   
@<TRIPOS>SUBSTRUCTURE
     1 MOL         1 TEMP              0 ****  ****    0 ROOT
