@<TRIPOS>MOLECULE
MOL
  179   176     1     0     0
SMALL
resp


@<TRIPOS>ATOM
      1 C1          1.4510    4.0640    5.6270 c3        1 MOL     -0.402545
      2 C2          1.0740    3.3470    4.2820 c         1 MOL      0.681712
      3 O1          1.9860    3.1690    3.4430 o         1 MOL     -0.572877
      4 H1          2.0640    4.9400    5.4120 hc        1 MOL      0.104340
      5 H2          0.5420    4.3750    6.1410 hc        1 MOL      0.104340
      6 H3          2.0110    3.3780    6.2610 hc        1 MOL      0.104340
      7 N1         -0.1780    3.1290    3.9990 n         1 MOL     -0.574229
      8 C3         -0.6240    2.8840    2.6330 c3        1 MOL      0.013364
      9 C4         -0.4570    4.1470    1.7900 c         1 MOL      0.696492
     10 O2         -0.7530    5.2360    2.2570 o         1 MOL     -0.639080
     11 C5         -2.0380    2.2510    2.6660 c3        1 MOL     -0.179855
     12 C6         -2.5160    1.7470    1.2300 c         1 MOL      0.909362
     13 O3         -3.5190    1.0650    1.1360 o         1 MOL     -0.776858
     14 O4         -1.8550    2.0220    0.2090 o         1 MOL     -0.776858
     15 H4         -0.8300    3.0210    4.7580 hn        1 MOL      0.348235
     16 H5          0.1370    2.1740    2.2910 h1        1 MOL     -0.047777
     17 H6         -2.7460    3.0130    2.9750 hc        1 MOL      0.044876
     18 H7         -2.1750    1.3660    3.2880 hc        1 MOL      0.044876
     19 N2          0.1380    4.0520    0.6170 n         1 MOL     -0.112839
     20 C7          0.3400    5.1400   -0.3150 c3        1 MOL     -0.409542
     21 C8         -0.6850    5.3550   -1.4760 c         1 MOL      0.638881
     22 O5         -0.6600    6.4260   -2.1110 o         1 MOL     -0.570293
     23 C9          1.8000    5.0230   -0.9100 c3        1 MOL      0.111620
     24 C10         2.9790    4.7270    0.0630 c3        1 MOL      0.009296
     25 C11         3.3560    5.9250    0.9240 c3        1 MOL     -0.169188
     26 C12         2.3160    6.2470    1.9920 c3        1 MOL      0.270390
     27 N3          2.5730    7.4730    2.7070 n4        1 MOL     -0.537290
     28 H8          0.4300    3.1480    0.2720 hn        1 MOL      0.196126
     29 H9          0.2020    6.0660    0.2340 h1        1 MOL      0.115689
     30 H10         2.1500    5.8160   -1.5650 hc        1 MOL      0.015452
     31 H11         1.7890    4.2030   -1.6290 hc        1 MOL      0.015452
     32 H12         3.8840    4.4500   -0.4820 hc        1 MOL      0.039091
     33 H13         2.7190    3.9540    0.7870 hc        1 MOL      0.039091
     34 H14         3.5730    6.7810    0.2840 hc        1 MOL      0.045489
     35 H15         4.2890    5.6300    1.4000 hc        1 MOL      0.045489
     36 H16         2.2090    5.4740    2.7540 hx        1 MOL      0.050713
     37 H17         1.3340    6.4130    1.5560 hx        1 MOL      0.050713
     38 H18         2.0420    8.2490    2.3290 hn        1 MOL      0.351639
     39 H19         2.2390    7.4230    3.6610 hn        1 MOL      0.351639
     40 H20         3.5600    7.6080    2.8290 hn        1 MOL      0.351639
     41 N4         -1.6200    4.4370   -1.7770 n         1 MOL     -0.233051
     42 C13        -2.7230    4.6120   -2.7860 c3        1 MOL     -0.259011
     43 C14        -4.0760    4.2510   -2.2610 c         1 MOL      0.506154
     44 O6         -5.1160    4.3020   -2.8990 o         1 MOL     -0.505235
     45 C15        -2.3650    3.8650   -4.1150 c3        1 MOL      0.001610
     46 C16        -1.8190    2.4400   -4.0980 c         1 MOL      0.665859
     47 O7         -2.1380    1.6560   -3.1850 o         1 MOL     -0.700182
     48 O8         -0.8890    2.1350   -4.8600 o         1 MOL     -0.700182
     49 H21        -1.5330    3.5480   -1.3010 hn        1 MOL      0.158988
     50 H22        -2.8510    5.6760   -3.0170 h1        1 MOL      0.170876
     51 H23        -1.6090    4.4800   -4.6100 hc        1 MOL      0.037774
     52 H24        -3.1500    3.9220   -4.8670 hc        1 MOL      0.037774
     53 N5         -4.1190    3.8470   -0.9670 n         1 MOL     -0.229621
     54 C17        -5.3970    3.7480   -0.2080 c3        1 MOL     -0.211419
     55 C18        -6.3090    2.6020   -0.5060 c         1 MOL      0.487253
     56 O9         -7.5100    2.5530   -0.3780 o         1 MOL     -0.558225
     57 H25        -3.2720    3.6510   -0.4520 hn        1 MOL      0.141096
     58 H26        -5.8920    4.7140   -0.3370 h1        1 MOL      0.122757
     59 H27        -5.0650    3.6930    0.8270 h1        1 MOL      0.122757
     60 N6         -5.7220    1.4880   -0.9250 n         1 MOL     -0.048446
     61 C19        -6.4250    0.2140   -1.3170 c3        1 MOL     -0.165992
     62 C20        -6.6740   -0.8740   -0.1460 c         1 MOL      0.313848
     63 O10        -7.4010   -1.8820   -0.3610 o         1 MOL     -0.439904
     64 C21        -5.7870   -0.4230   -2.5760 c3        1 MOL      0.020518
     65 C22        -4.4900   -1.1770   -2.2910 c         1 MOL      0.344199
     66 N7         -4.3000   -2.2980   -2.8630 n         1 MOL     -0.536234
     67 O11        -3.6360   -0.8000   -1.4610 o         1 MOL     -0.452869
     68 H28        -4.7090    1.4540   -0.9390 hn        1 MOL      0.048089
     69 H29        -7.4610    0.4720   -1.5520 h1        1 MOL      0.146687
     70 H30        -5.5880    0.3060   -3.3520 hc        1 MOL      0.050454
     71 H31        -6.5760   -1.0850   -2.9330 hc        1 MOL      0.050454
     72 H32        -4.9350   -2.6340   -3.5780 hn        1 MOL      0.319039
     73 H33        -3.3820   -2.6940   -2.7770 hn        1 MOL      0.319039
     74 N8         -6.0520   -0.6050    0.9900 n         1 MOL     -0.062502
     75 C23        -6.1220   -1.4770    2.1520 c3        1 MOL     -0.461436
     76 C24        -4.9960   -2.4370    2.3660 c         1 MOL      0.833002
     77 O12        -5.0660   -3.3290    3.2210 o         1 MOL     -0.611951
     78 H34        -5.4480    0.2000    1.0000 hn        1 MOL      0.210533
     79 H35        -7.0620   -2.0400    2.1270 h1        1 MOL      0.167683
     80 H36        -6.0030   -0.7840    2.9950 h1        1 MOL      0.167683
     81 N9         -3.9030   -2.2490    1.6350 n         1 MOL     -0.770652
     82 C25        -2.7910   -3.1780    1.5750 c3        1 MOL      0.172982
     83 C26        -1.4950   -2.2870    1.5130 c         1 MOL      0.633416
     84 O13        -1.4620   -1.3460    0.6540 o         1 MOL     -0.707359
     85 C27        -3.0440   -4.1260    0.3350 c3        1 MOL      0.036091
     86 C28        -4.3440   -4.9570    0.4710 ca        1 MOL     -0.142303
     87 C29        -5.4940   -4.5190   -0.2120 ca        1 MOL     -0.001682
     88 C30        -4.3930   -6.1990    1.1610 ca        1 MOL     -0.001682
     89 C31        -6.6880   -5.2310   -0.1860 ca        1 MOL     -0.415855
     90 C32        -5.6060   -6.9090    1.2030 ca        1 MOL     -0.415855
     91 C33        -6.7570   -6.3440    0.6270 ca        1 MOL      0.526776
     92 O14        -7.9140   -7.0290    0.6740 oh        1 MOL     -0.479776
     93 H37        -3.8530   -1.3810    1.1320 hn        1 MOL      0.494305
     94 H38        -2.7890   -3.8710    2.4140 h1        1 MOL      0.066032
     95 H39        -2.2290   -4.8290    0.2220 hc        1 MOL     -0.001643
     96 H40        -3.1400   -3.4730   -0.5380 hc        1 MOL     -0.001643
     97 H41        -5.4870   -3.5720   -0.7350 ha        1 MOL      0.097186
     98 H42        -3.4530   -6.6000    1.5400 ha        1 MOL      0.097186
     99 H43        -7.5720   -5.0060   -0.7660 ha        1 MOL      0.177256
    100 H44        -5.7080   -7.8410    1.7460 ha        1 MOL      0.177256
    101 H45        -7.6650   -7.7970    1.2000 ho        1 MOL      0.322393
    102 N10        -0.4580   -2.7190    2.1420 n         1 MOL     -0.656518
    103 C34         0.8950   -2.2530    1.8300 c3        1 MOL      0.318754
    104 C35         1.6920   -3.3070    1.1030 c         1 MOL      0.408682
    105 O15         1.6430   -4.5270    1.4490 o         1 MOL     -0.575648
    106 C36         1.5340   -1.8880    3.1910 c3        1 MOL      0.155518
    107 C37         0.8180   -0.7070    3.8580 c3        1 MOL     -0.041259
    108 C38         3.0130   -1.6080    3.0300 c3        1 MOL     -0.201430
    109 C39         1.3190   -0.5520    5.3540 c3        1 MOL     -0.403186
    110 H46        -0.5410   -3.5660    2.6790 hn        1 MOL      0.321394
    111 H47         0.8950   -1.3760    1.1820 h1        1 MOL     -0.072218
    112 H48         1.4040   -2.8060    3.7700 hc        1 MOL     -0.002381
    113 H49        -0.2570   -0.8450    3.8100 hc        1 MOL      0.074139
    114 H50         1.0540    0.2440    3.3840 hc        1 MOL      0.074139
    115 H51         3.5020   -2.5210    2.6560 hc        1 MOL      0.038011
    116 H52         3.2240   -0.7150    2.4410 hc        1 MOL      0.038011
    117 H53         3.5280   -1.6000    3.9890 hc        1 MOL      0.038011
    118 H54         2.3480   -0.1970    5.2930 hc        1 MOL      0.108604
    119 H55         0.7850    0.2660    5.8300 hc        1 MOL      0.108604
    120 H56         1.1040   -1.4340    5.9490 hc        1 MOL      0.108604
    121 N11         2.3670   -2.9280    0.0660 n         1 MOL     -0.078500
    122 C40         3.2680   -3.6760   -0.7450 c3        1 MOL     -0.207261
    123 C41         4.7330   -3.5770   -0.2560 c         1 MOL      0.474707
    124 O16         5.1370   -2.7980    0.5610 o         1 MOL     -0.368175
    125 C42         3.1850   -3.2160   -2.1650 c3        1 MOL      0.048677
    126 O17         3.4170   -1.8360   -2.3460 oh        1 MOL     -0.466876
    127 H57         2.2850   -1.9320   -0.0690 hn        1 MOL      0.224632
    128 H58         2.9240   -4.7110   -0.7380 h1        1 MOL      0.107675
    129 H59         2.1900   -3.4600   -2.5310 h1        1 MOL      0.055351
    130 H60         3.8110   -3.7790   -2.8580 h1        1 MOL      0.055351
    131 H61         2.5680   -1.4360   -2.1240 ho        1 MOL      0.331112
    132 N12         5.5710   -4.4980   -0.8450 n         1 MOL     -0.411187
    133 C43         7.0120   -4.5630   -0.6000 c3        1 MOL      0.056085
    134 C44         7.6230   -3.2380   -1.0620 c         1 MOL      0.547676
    135 O18         8.3960   -2.6150   -0.3230 o         1 MOL     -0.504858
    136 C45         7.7480   -5.7500   -1.1630 c3        1 MOL     -0.289485
    137 H62         5.0970   -5.2250   -1.3630 hn        1 MOL      0.280667
    138 H63         7.1440   -4.5630    0.4870 h1        1 MOL      0.099379
    139 H64         7.7140   -5.7840   -2.2470 hc        1 MOL      0.094527
    140 H65         8.7860   -5.7110   -0.8230 hc        1 MOL      0.094527
    141 H66         7.2510   -6.6930   -0.9370 hc        1 MOL      0.094527
    142 N13         7.1150   -2.6510   -2.1920 n         1 MOL     -0.541830
    143 C46         7.5580   -1.4190   -2.7300 c3        1 MOL      0.315403
    144 C47         7.1990   -0.2990   -1.8720 c         1 MOL      0.306488
    145 O19         8.0980    0.4600   -1.4830 o         1 MOL     -0.484917
    146 C48         7.0050   -1.3480   -4.1490 c3        1 MOL     -0.321557
    147 H67         6.4340   -3.2540   -2.6370 hn        1 MOL      0.290146
    148 H68         8.6420   -1.3580   -2.8310 h1        1 MOL      0.047669
    149 H69         7.3890   -0.4320   -4.5870 hc        1 MOL      0.087857
    150 H70         7.3600   -2.1960   -4.7330 hc        1 MOL      0.087857
    151 H71         5.9140   -1.4230   -4.2160 hc        1 MOL      0.087857
    152 N14         5.9330   -0.1660   -1.4490 n         1 MOL     -0.106259
    153 C49         5.5540    0.7220   -0.3710 c3        1 MOL     -0.103508
    154 C50         6.3380    0.5300    0.9540 c         1 MOL      0.425210
    155 O20         6.6900    1.5430    1.5480 o         1 MOL     -0.547746
    156 C51         4.0260    0.5580   -0.0000 c3        1 MOL     -0.253407
    157 C52         3.1820    1.2040   -1.0660 c3        1 MOL      0.033064
    158 C53         1.6980    0.8810   -1.0810 c         1 MOL      0.576077
    159 O21         1.4130   -0.2900   -0.8230 o         1 MOL     -0.604705
    160 O22         0.8410    1.7670   -1.3900 o         1 MOL     -0.604705
    161 H72         5.2820   -0.8380   -1.8400 hn        1 MOL      0.080130
    162 H73         5.6030    1.7780   -0.6600 h1        1 MOL      0.119001
    163 H74         3.7760    0.9430    0.9920 hc        1 MOL      0.091479
    164 H75         3.7090   -0.4870    0.0770 hc        1 MOL      0.091479
    165 H76         3.5280    0.9070   -2.0530 hc        1 MOL      0.013185
    166 H77         3.3400    2.2870   -1.1300 hc        1 MOL      0.013185
    167 N15         6.7690   -0.6870    1.3250 n         1 MOL      0.007143
    168 C54         7.5850   -0.9110    2.5400 c3        1 MOL     -0.242800
    169 H78         8.5570   -1.3140    2.2550 h1        1 MOL      0.094620
    170 H79         7.7240    0.0350    3.0640 h1        1 MOL      0.094620
    171 H80         7.0760   -1.6180    3.1950 h1        1 MOL      0.094620
    172 H81         6.5130   -1.5290    0.8200 hn        1 MOL      0.074109
    173 Ca1        -1.1880    0.1500   -1.4640 Ca        1 MOL      1.702368
    174 O23        -0.8620   -2.3910   -2.1400 oh        1 MOL     -0.909155
    175 H82        -0.5870   -2.5340   -3.0510 ho        1 MOL      0.426597
    176 H83        -0.6480   -3.2170   -1.7020 ho        1 MOL      0.426597
    177 O24         0.1540   -0.2560   -3.6500 oh        1 MOL     -0.909155
    178 H84         0.0170    0.5500   -4.1590 ho        1 MOL      0.426597
    179 H85         0.4180   -0.9010   -4.2980 ho        1 MOL      0.426597
@<TRIPOS>BOND
     1    1    2 1   
     2    1    4 1   
     3    1    5 1   
     4    1    6 1   
     5    2    3 2   
     6    2    7 1   
     7    7    8 1   
     8    7   15 1   
     9    8    9 1   
    10    8   11 1   
    11    8   16 1   
    12    9   10 2   
    13    9   19 1   
    14   11   12 1   
    15   11   17 1   
    16   11   18 1   
    17   12   13 1   
    18   12   14 1   
    19   19   20 1   
    20   19   28 1   
    21   20   21 1   
    22   20   23 1   
    23   20   29 1   
    24   21   22 2   
    25   21   41 1   
    26   23   24 1   
    27   23   30 1   
    28   23   31 1   
    29   24   25 1   
    30   24   32 1   
    31   24   33 1   
    32   25   26 1   
    33   25   34 1   
    34   25   35 1   
    35   26   27 1   
    36   26   36 1   
    37   26   37 1   
    38   27   38 1   
    39   27   39 1   
    40   27   40 1   
    41   41   42 1   
    42   41   49 1   
    43   42   43 1   
    44   42   45 1   
    45   42   50 1   
    46   43   44 2   
    47   43   53 1   
    48   45   46 1   
    49   45   51 1   
    50   45   52 1   
    51   46   47 1   
    52   46   48 1   
    53   53   54 1   
    54   53   57 1   
    55   54   55 1   
    56   54   58 1   
    57   54   59 1   
    58   55   56 2   
    59   55   60 1   
    60   60   61 1   
    61   60   68 1   
    62   61   62 1   
    63   61   64 1   
    64   61   69 1   
    65   62   63 2   
    66   62   74 1   
    67   64   65 1   
    68   64   70 1   
    69   64   71 1   
    70   65   66 1   
    71   65   67 2   
    72   66   72 1   
    73   66   73 1   
    74   74   75 1   
    75   74   78 1   
    76   75   76 1   
    77   75   79 1   
    78   75   80 1   
    79   76   77 2   
    80   76   81 1   
    81   81   82 1   
    82   81   93 1   
    83   82   83 1   
    84   82   85 1   
    85   82   94 1   
    86   83   84 2   
    87   83  102 1   
    88   85   86 1   
    89   85   95 1   
    90   85   96 1   
    91   86   87 ar  
    92   86   88 ar  
    93   87   89 ar  
    94   87   97 1   
    95   88   90 ar  
    96   88   98 1   
    97   89   91 ar  
    98   89   99 1   
    99   90   91 ar  
   100   90  100 1   
   101   91   92 1   
   102   92  101 1   
   103  102  103 1   
   104  102  110 1   
   105  103  104 1   
   106  103  106 1   
   107  103  111 1   
   108  104  105 2   
   109  104  121 1   
   110  106  107 1   
   111  106  108 1   
   112  106  112 1   
   113  107  109 1   
   114  107  113 1   
   115  107  114 1   
   116  108  115 1   
   117  108  116 1   
   118  108  117 1   
   119  109  118 1   
   120  109  119 1   
   121  109  120 1   
   122  121  122 1   
   123  121  127 1   
   124  122  123 1   
   125  122  125 1   
   126  122  128 1   
   127  123  124 2   
   128  123  132 1   
   129  125  126 1   
   130  125  129 1   
   131  125  130 1   
   132  126  131 1   
   133  132  133 1   
   134  132  137 1   
   135  133  134 1   
   136  133  136 1   
   137  133  138 1   
   138  134  135 2   
   139  134  142 1   
   140  136  139 1   
   141  136  140 1   
   142  136  141 1   
   143  142  143 1   
   144  142  147 1   
   145  143  144 1   
   146  143  146 1   
   147  143  148 1   
   148  144  145 2   
   149  144  152 1   
   150  146  149 1   
   151  146  150 1   
   152  146  151 1   
   153  152  153 1   
   154  152  161 1   
   155  153  154 1   
   156  153  156 1   
   157  153  162 1   
   158  154  155 2   
   159  154  167 1   
   160  156  157 1   
   161  156  163 1   
   162  156  164 1   
   163  157  158 1   
   164  157  165 1   
   165  157  166 1   
   166  158  159 1   
   167  158  160 1   
   168  167  168 1   
   169  167  172 1   
   170  168  169 1   
   171  168  170 1   
   172  168  171 1   
   173  174  175 1   
   174  174  176 1   
   175  177  178 1   
   176  177  179 1   
@<TRIPOS>SUBSTRUCTURE
     1 MOL         1 TEMP              0 ****  ****    0 ROOT
