@<TRIPOS>MOLECULE
MOL
  182   178     1     0     0
SMALL
resp


@<TRIPOS>ATOM
      1 C1          2.7790    2.6000    4.7930 c3        1 MOL     -0.395797
      2 C2          1.9220    2.5240    3.4840 c         1 MOL      0.690500
      3 O1          2.5310    2.4050    2.4080 o         1 MOL     -0.563966
      4 H1          3.8370    2.6240    4.5330 hc        1 MOL      0.099352
      5 H2          2.5210    3.5030    5.3450 hc        1 MOL      0.099352
      6 H3          2.5770    1.7250    5.4100 hc        1 MOL      0.099352
      7 N1          0.6070    2.3950    3.6110 n         1 MOL     -0.668606
      8 C3         -0.3050    2.3520    2.4740 c3        1 MOL      0.268168
      9 C4         -0.5610    3.7750    1.9070 c         1 MOL      0.448482
     10 O2         -1.2420    4.6090    2.5070 o         1 MOL     -0.552092
     11 C5         -1.6490    1.5650    2.7430 c3        1 MOL      0.008963
     12 C6         -2.6720    1.4460    1.6080 c         1 MOL      0.419417
     13 O3         -3.8820    1.4190    1.8960 o         1 MOL     -0.615092
     14 O4         -2.1580    1.4760    0.4660 o         1 MOL     -0.615092
     15 H4          0.2800    2.4750    4.5670 hn        1 MOL      0.334407
     16 H5          0.1650    1.8860    1.6100 h1        1 MOL      0.001837
     17 H6         -2.1260    2.0870    3.5710 hc        1 MOL      0.004109
     18 H7         -1.3630    0.5630    3.0560 hc        1 MOL      0.004109
     19 N2          0.0760    4.0460    0.7440 n         1 MOL     -0.193394
     20 C7          0.3350    5.3560    0.1780 c3        1 MOL     -0.227996
     21 C8         -0.6370    5.7180   -0.9250 c         1 MOL      0.540467
     22 O5         -0.7370    6.9110   -1.2890 o         1 MOL     -0.542868
     23 C9          1.7910    5.4940   -0.2450 c3        1 MOL     -0.033844
     24 C10         2.7130    5.8870    0.8630 c3        1 MOL      0.202958
     25 C11         4.0920    6.1640    0.3630 c3        1 MOL     -0.002142
     26 C12         4.8760    7.0250    1.2700 c3        1 MOL     -0.066253
     27 N3          5.3950    6.2760    2.4490 n4        1 MOL     -0.338409
     28 H8          0.4570    3.2100    0.3230 hn        1 MOL      0.273235
     29 H9          0.0800    6.0730    0.9680 h1        1 MOL      0.132188
     30 H10         1.8940    6.3290   -0.9510 hc        1 MOL      0.026232
     31 H11         2.0870    4.6000   -0.7810 hc        1 MOL      0.026232
     32 H12         2.7940    4.9960    1.4730 hc        1 MOL     -0.051595
     33 H13         2.3470    6.7020    1.4890 hc        1 MOL     -0.051595
     34 H14         4.0330    6.7230   -0.5810 hc        1 MOL      0.040605
     35 H15         4.6760    5.2800    0.1040 hc        1 MOL      0.040605
     36 H16         4.2790    7.8910    1.5580 hx        1 MOL      0.105875
     37 H17         5.6640    7.3660    0.5970 hx        1 MOL      0.105875
     38 H18         5.7710    5.3690    2.1970 hn        1 MOL      0.327064
     39 H19         6.0650    6.8340    2.9580 hn        1 MOL      0.327064
     40 H20         4.6370    5.9580    3.0250 hn        1 MOL      0.327064
     41 N4         -1.1460    4.7570   -1.7220 n         1 MOL     -0.361346
     42 C13        -2.3200    4.9750   -2.5610 c3        1 MOL     -0.067204
     43 C14        -3.5950    4.9540   -1.7110 c         1 MOL      0.523619
     44 O6         -4.4670    5.7520   -1.8880 o         1 MOL     -0.546045
     45 C15        -2.3660    4.0520   -3.8250 c3        1 MOL     -0.190061
     46 C16        -2.1690    2.5660   -3.4920 c         1 MOL      0.820378
     47 O7         -1.6110    1.7690   -4.3750 o         1 MOL     -0.781270
     48 O8         -2.6100    2.1380   -2.3880 o         1 MOL     -0.781270
     49 H21        -0.8560    3.8070   -1.5410 hn        1 MOL      0.271783
     50 H22        -2.1600    5.9750   -2.9660 h1        1 MOL      0.124086
     51 H23        -1.5270    4.3200   -4.4760 hc        1 MOL      0.076369
     52 H24        -3.1770    4.2300   -4.5260 hc        1 MOL      0.076369
     53 N5         -3.7430    4.0480   -0.7100 n         1 MOL     -0.152828
     54 C17        -4.8710    3.9230    0.1620 c3        1 MOL     -0.249361
     55 C18        -5.9040    2.8810   -0.3140 c         1 MOL      0.556088
     56 O9         -7.0600    2.9180    0.1780 o         1 MOL     -0.591659
     57 H25        -3.1230    3.2520   -0.6200 hn        1 MOL      0.124651
     58 H26        -5.4030    4.8300    0.4350 h1        1 MOL      0.148077
     59 H27        -4.4250    3.6230    1.1100 h1        1 MOL      0.148077
     60 N6         -5.5350    1.8080   -0.9830 n         1 MOL     -0.269752
     61 C19        -6.3540    0.6360   -1.3280 c3        1 MOL     -0.143759
     62 C20        -6.7740   -0.2330   -0.1120 c         1 MOL      0.448723
     63 O10        -7.5690   -1.1350   -0.1990 o         1 MOL     -0.535795
     64 C21        -5.7740    0.0120   -2.5500 c3        1 MOL     -0.289614
     65 C22        -4.8060   -1.0190   -2.2310 c         1 MOL      0.805996
     66 N7         -5.0800   -2.1760   -2.7870 n         1 MOL     -0.838355
     67 O11        -3.8280   -0.8900   -1.5460 o         1 MOL     -0.654570
     68 H28        -4.5520    1.7030   -1.1870 hn        1 MOL      0.184298
     69 H29        -7.2720    1.0820   -1.7020 h1        1 MOL      0.152404
     70 H30        -5.3710    0.6840   -3.3030 hc        1 MOL      0.126442
     71 H31        -6.5470   -0.4410   -3.1630 hc        1 MOL      0.126442
     72 H32        -5.8020   -2.2030   -3.4900 hn        1 MOL      0.348913
     73 H33        -4.4200   -2.9320   -2.6420 hn        1 MOL      0.348913
     74 N8         -6.1840    0.0400    1.0570 n         1 MOL     -0.168593
     75 C23        -6.3300   -0.7530    2.3210 c3        1 MOL     -0.197526
     76 C24        -5.2200   -1.7350    2.6190 c         1 MOL      0.529768
     77 O12        -5.3750   -2.4150    3.6300 o         1 MOL     -0.537797
     78 H34        -5.4610    0.7420    1.1100 hn        1 MOL      0.240954
     79 H35        -7.3180   -1.2180    2.3070 h1        1 MOL      0.128048
     80 H36        -6.3710   -0.0450    3.1440 h1        1 MOL      0.128048
     81 N9         -4.2230   -1.9440    1.6890 n         1 MOL     -0.222544
     82 C25        -3.1220   -2.8630    1.9070 c3        1 MOL      0.100225
     83 C26        -1.7220   -2.3420    1.6190 c         1 MOL      0.619798
     84 O13        -1.5010   -1.6210    0.5930 o         1 MOL     -0.636365
     85 C27        -3.2520   -4.2430    1.2160 c3        1 MOL      0.198041
     86 C28        -4.6300   -4.6270    0.6860 ca        1 MOL     -0.077897
     87 C29        -5.6960   -4.9460    1.5590 ca        1 MOL     -0.240026
     88 C30        -4.9050   -4.6700   -0.6550 ca        1 MOL     -0.240026
     89 C31        -6.9230   -5.4450    1.1160 ca        1 MOL     -0.039638
     90 C32        -6.1020   -5.1920   -1.1400 ca        1 MOL     -0.039638
     91 C33        -7.0580   -5.6660   -0.2350 ca        1 MOL      0.146899
     92 O14        -8.1220   -6.3870   -0.7330 oh        1 MOL     -0.435899
     93 H37        -4.1710   -1.5320    0.7650 hn        1 MOL      0.238628
     94 H38        -3.1690   -3.0580    2.9800 h1        1 MOL     -0.011145
     95 H39        -2.8060   -4.9620    1.9140 hc        1 MOL     -0.034706
     96 H40        -2.6130   -4.3030    0.3390 hc        1 MOL     -0.034706
     97 H41        -5.5430   -4.8960    2.6260 ha        1 MOL      0.156574
     98 H42        -4.1140   -4.4100   -1.3370 ha        1 MOL      0.156574
     99 H43        -7.7450   -5.8280    1.7020 ha        1 MOL      0.099909
    100 H44        -6.0340   -5.4450   -2.1840 ha        1 MOL      0.099909
    101 H45        -8.1630   -6.3580   -1.6980 ho        1 MOL      0.330404
    102 N10        -0.6610   -2.7180    2.4100 n         1 MOL     -0.566503
    103 C34         0.7870   -2.4740    2.2550 c3        1 MOL     -0.115286
    104 C35         1.4120   -3.5370    1.2660 c         1 MOL      0.647371
    105 O15         1.2610   -4.7350    1.3960 o         1 MOL     -0.618449
    106 C36         1.5070   -2.5450    3.6550 c3        1 MOL      0.178157
    107 C37         0.9400   -1.7080    4.7080 c3        1 MOL      0.308251
    108 C38         3.0300   -2.4230    3.4990 c3        1 MOL     -0.435755
    109 C39         1.4590   -1.7910    6.1530 c3        1 MOL     -0.232323
    110 H46        -0.9340   -3.2710    3.2080 hn        1 MOL      0.286283
    111 H47         0.8630   -1.4850    1.8080 h1        1 MOL      0.196284
    112 H48         1.3920   -3.5610    4.0230 hc        1 MOL     -0.004160
    113 H49        -0.1450   -1.7690    4.7890 hc        1 MOL     -0.075728
    114 H50         1.0120   -0.6710    4.3640 hc        1 MOL     -0.075728
    115 H51         3.5140   -3.2370    2.9750 hc        1 MOL      0.098440
    116 H52         3.2360   -1.4560    3.0410 hc        1 MOL      0.098440
    117 H53         3.4470   -2.5430    4.4970 hc        1 MOL      0.098440
    118 H54         1.1960   -2.7400    6.6160 hc        1 MOL      0.050048
    119 H55         2.5450   -1.6270    6.1480 hc        1 MOL      0.050048
    120 H56         1.0910   -0.9260    6.7010 hc        1 MOL      0.050048
    121 N11         2.2920   -3.1610    0.3620 n         1 MOL     -0.139350
    122 C40         3.0020   -3.8970   -0.6860 c3        1 MOL     -0.074796
    123 C41         4.5210   -3.8990   -0.4770 c         1 MOL      0.372732
    124 O16         5.0500   -3.0290    0.2040 o         1 MOL     -0.430843
    125 C42         2.5980   -3.5320   -2.1390 c3        1 MOL      0.015411
    126 O17         2.7030   -2.1350   -2.3380 oh        1 MOL     -0.490426
    127 H57         2.5210   -2.1870    0.4810 hn        1 MOL      0.250367
    128 H58         2.7920   -4.9680   -0.6220 h1        1 MOL      0.067077
    129 H59         1.5710   -3.8810   -2.2950 h1        1 MOL      0.050084
    130 H60         3.2360   -4.0520   -2.8520 h1        1 MOL      0.050084
    131 H61         2.0330   -1.7620   -1.7560 ho        1 MOL      0.330011
    132 N12         5.2870   -4.7630   -1.1820 n         1 MOL     -0.289795
    133 C43         6.6860   -4.7760   -1.1680 c3        1 MOL      0.137469
    134 C44         7.2890   -3.4050   -1.4830 c         1 MOL      0.418501
    135 O18         8.0190   -2.8700   -0.6410 o         1 MOL     -0.506345
    136 C45         7.1790   -6.0020   -1.9780 c3        1 MOL     -0.268276
    137 H62         4.8870   -5.5670   -1.6540 hn        1 MOL      0.234112
    138 H63         6.9280   -5.0160   -0.1310 h1        1 MOL      0.060750
    139 H64         6.6200   -6.8890   -1.6940 hc        1 MOL      0.082858
    140 H65         7.0960   -5.6410   -3.0080 hc        1 MOL      0.082858
    141 H66         8.2120   -6.1790   -1.6830 hc        1 MOL      0.082858
    142 N13         6.9440   -2.7190   -2.6270 n         1 MOL     -0.315947
    143 C46         7.4670   -1.3950   -3.0500 c3        1 MOL      0.040306
    144 C47         7.0420   -0.2620   -2.1000 c         1 MOL      0.398347
    145 O19         7.7980    0.7370   -1.9900 o         1 MOL     -0.534758
    146 C48         6.9130   -1.2300   -4.4790 c3        1 MOL     -0.314101
    147 H67         6.3680   -3.1930   -3.3170 hn        1 MOL      0.248737
    148 H68         8.5550   -1.4250   -3.1060 h1        1 MOL      0.105811
    149 H69         5.8380   -1.0440   -4.5030 hc        1 MOL      0.093571
    150 H70         7.4620   -0.4260   -4.9820 hc        1 MOL      0.093571
    151 H71         7.1900   -2.0970   -5.0830 hc        1 MOL      0.093571
    152 N14         5.9320   -0.4070   -1.3970 n         1 MOL     -0.056706
    153 C49         5.6250    0.4920   -0.2870 c3        1 MOL     -0.252908
    154 C50         6.4970    0.3110    0.9960 c         1 MOL      0.651013
    155 O20         6.7720    1.3580    1.5190 o         1 MOL     -0.587133
    156 C51         4.1130    0.3000    0.0890 c3        1 MOL      0.161351
    157 C52         3.2710    1.0330   -0.8810 c3        1 MOL     -0.158195
    158 C53         1.7490    0.7930   -0.8400 c         1 MOL      0.914499
    159 O21         1.2270   -0.3290   -0.6550 o         1 MOL     -0.876587
    160 O22         0.8750    1.6750   -0.9030 o         1 MOL     -0.876587
    161 H72         5.3910   -1.2520   -1.5730 hn        1 MOL      0.149975
    162 H73         5.8520    1.4900   -0.6410 h1        1 MOL      0.121389
    163 H74         3.8640    0.6580    1.0870 hc        1 MOL     -0.062846
    164 H75         3.8600   -0.7600    0.1160 hc        1 MOL     -0.062846
    165 H76         3.6100    0.7880   -1.8880 hc        1 MOL      0.024070
    166 H77         3.4450    2.0990   -0.7670 hc        1 MOL      0.024070
    167 N15         6.7930   -0.8800    1.5000 n         1 MOL     -0.276969
    168 C54         7.8370   -1.1070    2.4530 c3        1 MOL     -0.309564
    169 H78         8.8050   -1.0370    1.9550 h1        1 MOL      0.123176
    170 H79         7.7800   -0.3560    3.2410 h1        1 MOL      0.123176
    171 H80         7.7240   -2.1000    2.8880 h1        1 MOL      0.123176
    172 H81         6.4200   -1.7070    1.0500 hn        1 MOL      0.243689
    173 Ca1        -1.2430    0.0570   -1.4470 Ca        1 MOL      1.837713
    174 O23        -2.1620   -0.8120   -4.0730 oh        1 MOL     -0.852879
    175 H82        -2.1280    0.0980   -4.3730 ho        1 MOL      0.408095
    176 H83        -2.1070   -1.3370   -4.8670 ho        1 MOL      0.408095
    177 O24        -0.5800   -2.4590   -2.0170 oh        1 MOL     -0.852879
    178 H84        -0.8060   -3.3360   -1.7300 ho        1 MOL      0.408095
    179 H85        -0.3200   -2.5600   -2.9320 ho        1 MOL      0.408095
    180 O25         0.5960    0.4640   -3.5100 oh        1 MOL     -0.852879
    181 H86         1.4560    0.6180   -3.9000 ho        1 MOL      0.408095
    182 H87        -0.0190    0.9270   -4.0780 ho        1 MOL      0.408095
@<TRIPOS>BOND
     1    1    2 1   
     2    1    4 1   
     3    1    5 1   
     4    1    6 1   
     5    2    3 2   
     6    2    7 1   
     7    7    8 1   
     8    7   15 1   
     9    8    9 1   
    10    8   11 1   
    11    8   16 1   
    12    9   10 2   
    13    9   19 1   
    14   11   12 1   
    15   11   17 1   
    16   11   18 1   
    17   12   13 1   
    18   12   14 1   
    19   19   20 1   
    20   19   28 1   
    21   20   21 1   
    22   20   23 1   
    23   20   29 1   
    24   21   22 2   
    25   21   41 1   
    26   23   24 1   
    27   23   30 1   
    28   23   31 1   
    29   24   25 1   
    30   24   32 1   
    31   24   33 1   
    32   25   26 1   
    33   25   34 1   
    34   25   35 1   
    35   26   27 1   
    36   26   36 1   
    37   26   37 1   
    38   27   38 1   
    39   27   39 1   
    40   27   40 1   
    41   41   42 1   
    42   41   49 1   
    43   42   43 1   
    44   42   45 1   
    45   42   50 1   
    46   43   44 2   
    47   43   53 1   
    48   45   46 1   
    49   45   51 1   
    50   45   52 1   
    51   46   47 1   
    52   46   48 1   
    53   53   54 1   
    54   53   57 1   
    55   54   55 1   
    56   54   58 1   
    57   54   59 1   
    58   55   56 2   
    59   55   60 1   
    60   60   61 1   
    61   60   68 1   
    62   61   62 1   
    63   61   64 1   
    64   61   69 1   
    65   62   63 2   
    66   62   74 1   
    67   64   65 1   
    68   64   70 1   
    69   64   71 1   
    70   65   66 1   
    71   65   67 2   
    72   66   72 1   
    73   66   73 1   
    74   74   75 1   
    75   74   78 1   
    76   75   76 1   
    77   75   79 1   
    78   75   80 1   
    79   76   77 2   
    80   76   81 1   
    81   81   82 1   
    82   81   93 1   
    83   82   83 1   
    84   82   85 1   
    85   82   94 1   
    86   83   84 2   
    87   83  102 1   
    88   85   86 1   
    89   85   95 1   
    90   85   96 1   
    91   86   87 ar  
    92   86   88 ar  
    93   87   89 ar  
    94   87   97 1   
    95   88   90 ar  
    96   88   98 1   
    97   89   91 ar  
    98   89   99 1   
    99   90   91 ar  
   100   90  100 1   
   101   91   92 1   
   102   92  101 1   
   103  102  103 1   
   104  102  110 1   
   105  103  104 1   
   106  103  106 1   
   107  103  111 1   
   108  104  105 2   
   109  104  121 1   
   110  106  107 1   
   111  106  108 1   
   112  106  112 1   
   113  107  109 1   
   114  107  113 1   
   115  107  114 1   
   116  108  115 1   
   117  108  116 1   
   118  108  117 1   
   119  109  118 1   
   120  109  119 1   
   121  109  120 1   
   122  121  122 1   
   123  121  127 1   
   124  122  123 1   
   125  122  125 1   
   126  122  128 1   
   127  123  124 2   
   128  123  132 1   
   129  125  126 1   
   130  125  129 1   
   131  125  130 1   
   132  126  131 1   
   133  132  133 1   
   134  132  137 1   
   135  133  134 1   
   136  133  136 1   
   137  133  138 1   
   138  134  135 2   
   139  134  142 1   
   140  136  139 1   
   141  136  140 1   
   142  136  141 1   
   143  142  143 1   
   144  142  147 1   
   145  143  144 1   
   146  143  146 1   
   147  143  148 1   
   148  144  145 2   
   149  144  152 1   
   150  146  149 1   
   151  146  150 1   
   152  146  151 1   
   153  152  153 1   
   154  152  161 1   
   155  153  154 1   
   156  153  156 1   
   157  153  162 1   
   158  154  155 2   
   159  154  167 1   
   160  156  157 1   
   161  156  163 1   
   162  156  164 1   
   163  157  158 1   
   164  157  165 1   
   165  157  166 1   
   166  158  159 1   
   167  158  160 1   
   168  167  168 1   
   169  167  172 1   
   170  168  169 1   
   171  168  170 1   
   172  168  171 1   
   173  174  175 1   
   174  174  176 1   
   175  177  178 1   
   176  177  179 1   
   177  180  181 1   
   178  180  182 1   
@<TRIPOS>SUBSTRUCTURE
     1 MOL         1 TEMP              0 ****  ****    0 ROOT
