@<TRIPOS>MOLECULE
MOL
  175   173     1     0     0
SMALL
resp


@<TRIPOS>ATOM
      1 C1          0.3220    3.9650    5.3900 c3        1 MOL     -0.382533
      2 C2         -0.2570    3.9010    3.9810 c         1 MOL      0.718476
      3 O1          0.4950    3.8040    2.9820 o         1 MOL     -0.574810
      4 H1          0.5760    2.9590    5.7240 hc        1 MOL      0.090480
      5 H2          1.2190    4.5830    5.3860 hc        1 MOL      0.090480
      6 H3         -0.4140    4.3970    6.0670 hc        1 MOL      0.090480
      7 N1         -1.5600    3.7920    3.9250 n         1 MOL     -0.653600
      8 C3         -2.2420    3.4980    2.6480 c3        1 MOL      0.252184
      9 C4         -2.4240    4.7440    1.7960 c         1 MOL      0.686732
     10 O2         -2.5820    5.8030    2.3490 o         1 MOL     -0.581903
     11 C5         -3.5740    2.7700    2.9820 c3        1 MOL     -0.390665
     12 C6         -4.3380    2.4030    1.7050 c         1 MOL      0.721316
     13 O3         -5.6040    2.3460    1.7320 o         1 MOL     -0.652558
     14 O4         -3.6480    2.1020    0.7170 o         1 MOL     -0.652558
     15 H4         -2.0670    3.7380    4.7840 hn        1 MOL      0.336438
     16 H5         -1.5640    2.8800    2.0610 h1        1 MOL      0.012810
     17 H6         -4.1050    3.5080    3.5930 hc        1 MOL      0.077164
     18 H7         -3.3970    1.8670    3.5680 hc        1 MOL      0.077164
     19 N2         -2.4660    4.5690    0.4180 n         1 MOL     -0.665791
     20 C7         -2.7910    5.5830   -0.5220 c3        1 MOL      0.503483
     21 C8         -3.6700    5.1420   -1.6950 c         1 MOL      0.270864
     22 O5         -3.7480    5.7780   -2.7370 o         1 MOL     -0.509311
     23 C9         -1.5200    6.3600   -1.0010 c3        1 MOL     -0.363535
     24 H8         -2.5450    3.6150    0.0960 hn        1 MOL      0.372362
     25 H9         -3.3990    6.2860    0.0560 h1        1 MOL     -0.052987
     26 H10        -0.7570    5.6920   -1.3950 hc        1 MOL      0.082141
     27 H11        -1.9080    7.1510   -1.6450 hc        1 MOL      0.082141
     28 H12        -1.0200    6.8010   -0.1340 hc        1 MOL      0.082141
     29 N3         -4.1770    3.8900   -1.6080 n         1 MOL     -0.218588
     30 C10        -4.9970    3.3660   -2.7930 c3        1 MOL      0.107251
     31 C11        -6.2120    2.4410   -2.3360 c         1 MOL      0.354407
     32 O6         -7.0710    2.1040   -3.2490 o         1 MOL     -0.548345
     33 C12        -4.1210    2.5220   -3.7440 c3        1 MOL      0.005160
     34 C13        -3.3000    1.4360   -3.0620 c         1 MOL      0.553078
     35 O7         -3.7820    0.8000   -2.0670 o         1 MOL     -0.649016
     36 O8         -2.0300    1.3590   -3.1300 o         1 MOL     -0.649016
     37 H13        -4.1350    3.3490   -0.7620 hn        1 MOL      0.110326
     38 H14        -5.4800    4.1840   -3.3350 h1        1 MOL      0.056996
     39 H15        -3.5150    3.1760   -4.3790 hc        1 MOL      0.001647
     40 H16        -4.8460    2.0520   -4.4020 hc        1 MOL      0.001647
     41 N4         -6.2950    2.0600   -1.0620 n         1 MOL     -0.227118
     42 C14        -7.4420    1.3080   -0.5680 c3        1 MOL     -0.069916
     43 C15        -7.3640   -0.2100   -0.9820 c         1 MOL      0.480082
     44 O9         -8.3780   -0.8500   -0.8200 o         1 MOL     -0.615649
     45 H17        -5.5430    2.2190   -0.3920 hn        1 MOL      0.158548
     46 H18        -8.3830    1.7120   -0.9640 h1        1 MOL      0.086119
     47 H19        -7.6030    1.2960    0.5110 h1        1 MOL      0.086119
     48 N5         -6.2900   -0.6580   -1.6100 n         1 MOL     -0.185144
     49 C16        -6.0890   -1.9770   -2.1570 c3        1 MOL      0.048881
     50 C17        -6.0660   -3.0270   -1.0500 c         1 MOL      0.390134
     51 O10        -5.8840   -4.2320   -1.2990 o         1 MOL     -0.539983
     52 C18        -4.9040   -2.0660   -3.2120 c3        1 MOL     -0.258597
     53 C19        -3.5350   -2.1370   -2.7120 c         1 MOL      0.558863
     54 N6         -2.5400   -2.2010   -3.5520 n         1 MOL     -0.493163
     55 O11        -3.2640   -2.0530   -1.5240 o         1 MOL     -0.618780
     56 H20        -5.5740    0.0510   -1.6900 hn        1 MOL      0.132836
     57 H21        -6.9310   -2.2560   -2.7880 h1        1 MOL      0.093418
     58 H22        -4.9980   -1.2180   -3.8920 hc        1 MOL      0.091993
     59 H23        -5.1640   -2.9330   -3.8280 hc        1 MOL      0.091993
     60 H24        -2.7560   -2.3330   -4.5370 hn        1 MOL      0.272068
     61 H25        -1.5790   -2.2160   -3.2370 hn        1 MOL      0.272068
     62 N7         -6.1830   -2.7260    0.2270 n         1 MOL     -0.142493
     63 C20        -6.3690   -3.7700    1.2920 c3        1 MOL     -0.285503
     64 C21        -5.1410   -4.5680    1.6790 c         1 MOL      0.488806
     65 O12        -5.1110   -5.6320    2.3090 o         1 MOL     -0.559586
     66 H26        -6.2590   -1.7470    0.4450 hn        1 MOL      0.230221
     67 H27        -7.0960   -4.5240    1.0160 h1        1 MOL      0.133493
     68 H28        -6.7540   -3.1840    2.1310 h1        1 MOL      0.133493
     69 N8         -3.9850   -4.0480    1.2200 n         1 MOL      0.052618
     70 C22        -2.6410   -4.6370    1.3280 c3        1 MOL     -0.609215
     71 C23        -1.5580   -3.5870    1.3980 c         1 MOL      0.835131
     72 O13        -1.6590   -2.5200    0.7010 o         1 MOL     -0.583989
     73 C24        -2.3790   -5.5430    0.1050 c3        1 MOL      0.729474
     74 C25        -3.0390   -6.8730    0.3520 c3        1 MOL     -0.644876
     75 O14        -2.8460   -4.9470   -1.0740 oh        1 MOL     -0.693844
     76 H29        -3.9380   -3.0930    0.8780 hn        1 MOL      0.016379
     77 H30        -2.6110   -5.2900    2.2030 h1        1 MOL      0.148341
     78 H31        -1.2970   -5.6870    0.0220 h1        1 MOL     -0.047642
     79 H32        -3.5630   -4.3290   -0.9210 ho        1 MOL      0.442935
     80 H33        -4.0890   -6.6320    0.1720 hc        1 MOL      0.152362
     81 H34        -2.6920   -7.6280   -0.3490 hc        1 MOL      0.152362
     82 H35        -2.9270   -7.1300    1.4010 hc        1 MOL      0.152362
     83 N9         -0.4960   -3.7380    2.1270 n         1 MOL     -0.535433
     84 C26         0.6490   -2.7970    2.0220 c3        1 MOL     -0.011221
     85 C27         1.4000   -3.0380    0.7250 c         1 MOL      0.470512
     86 O15         1.9320   -4.0940    0.3210 o         1 MOL     -0.574866
     87 C28         1.5550   -2.9080    3.3040 c3        1 MOL      0.285394
     88 C29         0.9160   -2.2350    4.5530 c3        1 MOL      0.075111
     89 C30         2.9640   -2.4820    3.1380 c3        1 MOL     -0.210891
     90 C31         1.5180   -2.6890    5.9270 c3        1 MOL     -0.240442
     91 H36        -0.3090   -4.6500    2.5240 hn        1 MOL      0.276273
     92 H37         0.2550   -1.7840    2.0600 h1        1 MOL     -0.011382
     93 H38         1.6060   -3.9560    3.5950 hc        1 MOL     -0.046438
     94 H39        -0.1370   -2.4910    4.4830 hc        1 MOL     -0.024042
     95 H40         1.0410   -1.1620    4.4210 hc        1 MOL     -0.024042
     96 H41         2.9430   -1.3970    2.9810 hc        1 MOL      0.030672
     97 H42         3.4650   -2.7490    4.0650 hc        1 MOL      0.030672
     98 H43         3.4330   -3.0230    2.3100 hc        1 MOL      0.030672
     99 H44         2.5270   -2.2500    5.9040 hc        1 MOL      0.055922
    100 H45         0.9360   -2.2160    6.7110 hc        1 MOL      0.055922
    101 H46         1.6230   -3.7490    6.1420 hc        1 MOL      0.055922
    102 N10         1.7520   -1.9020    0.0630 n         1 MOL     -0.273399
    103 C32         2.6000   -1.8010   -1.1420 c3        1 MOL      0.072957
    104 C33         4.0500   -1.4750   -0.7830 c         1 MOL      0.601796
    105 O16         4.3500   -0.9460    0.2820 o         1 MOL     -0.407114
    106 C34         2.0710   -0.8310   -2.2250 c3        1 MOL     -0.402200
    107 C35         0.5540   -1.0460   -2.4720 c         1 MOL      0.812629
    108 O17        -0.2370   -0.5870   -1.6820 o         1 MOL     -0.674449
    109 O18         0.1790   -1.5830   -3.5020 o         1 MOL     -0.674449
    110 H47         1.4730   -1.0220    0.4640 hn        1 MOL      0.284705
    111 H48         2.7620   -2.7340   -1.6820 h1        1 MOL      0.071669
    112 H49         2.5760   -1.0850   -3.1570 hc        1 MOL      0.090413
    113 H50         2.3110    0.1790   -1.8770 hc        1 MOL      0.090413
    114 N11         5.0990   -1.7410   -1.6360 n         1 MOL     -0.820233
    115 C36         6.5000   -1.5060   -1.2690 c3        1 MOL      0.503154
    116 C37         6.9490   -0.0050   -0.9490 c         1 MOL      0.270956
    117 O19         7.6410    0.2430    0.0610 o         1 MOL     -0.452528
    118 C38         7.4000   -2.0690   -2.3400 c3        1 MOL     -0.269686
    119 C39         8.9370   -1.8520   -2.2020 ca        1 MOL      0.009666
    120 C40         9.5390   -2.0450   -0.9710 ca        1 MOL     -0.049259
    121 C41         9.5980   -1.3230   -3.3170 ca        1 MOL     -0.049259
    122 C42        10.8630   -1.6970   -0.8290 ca        1 MOL     -0.227642
    123 C43        10.9820   -1.0270   -3.1730 ca        1 MOL     -0.227642
    124 C44        11.5850   -1.1240   -1.9030 ca        1 MOL     -0.007046
    125 H51         4.9230   -2.2850   -2.4730 hn        1 MOL      0.359775
    126 H52         6.6290   -2.0180   -0.3160 h1        1 MOL      0.027552
    127 H53         7.0190   -1.7530   -3.3120 hc        1 MOL      0.069874
    128 H54         7.2990   -3.1460   -2.3040 hc        1 MOL      0.069874
    129 H55         8.9600   -2.3230   -0.0990 ha        1 MOL      0.095762
    130 H56         9.1190   -1.3520   -4.2870 ha        1 MOL      0.095762
    131 H57        11.3510   -1.7350    0.1350 ha        1 MOL      0.132839
    132 H58        11.4460   -0.5340   -4.0180 ha        1 MOL      0.132839
    133 H59        12.6240   -0.8710   -1.7820 ha        1 MOL      0.080265
    134 N12         6.4610    0.9830   -1.6880 n         1 MOL     -0.121605
    135 C45         6.6030    2.4100   -1.2870 c3        1 MOL      0.271747
    136 C46         5.9870    2.7100    0.1070 c         1 MOL      0.182541
    137 O20         6.4930    3.5390    0.8670 o         1 MOL     -0.481362
    138 C47         5.9390    3.2570   -2.2970 c3        1 MOL     -0.141293
    139 C48         6.1580    2.3530   -3.5550 c3        1 MOL     -0.015534
    140 C49         6.0590    0.9050   -3.0810 c3        1 MOL      0.015535
    141 H60         7.6520    2.6460   -1.1540 h1        1 MOL      0.007007
    142 H61         4.8570    3.3330   -2.1880 hc        1 MOL      0.065376
    143 H62         6.5230    4.1770   -2.4020 hc        1 MOL      0.065376
    144 H63         5.4220    2.5740   -4.3240 hc        1 MOL      0.008921
    145 H64         7.1750    2.3600   -3.9520 hc        1 MOL      0.008921
    146 H65         5.0550    0.5180   -3.2280 h1        1 MOL      0.030537
    147 H66         6.7800    0.3010   -3.6260 h1        1 MOL      0.030537
    148 N13         4.9000    2.0510    0.4640 n         1 MOL     -0.066874
    149 C50         4.2380    2.0530    1.7630 c3        1 MOL     -0.173873
    150 C51         5.0760    1.4130    2.8730 c         1 MOL      0.499373
    151 O21         5.1640    1.8770    3.9940 o         1 MOL     -0.576176
    152 C52         2.8470    1.5140    1.6300 c3        1 MOL     -0.038527
    153 C53         1.9440    1.9920    0.5020 c3        1 MOL     -0.247068
    154 C54         0.4980    1.4980    0.5780 c         1 MOL      0.771399
    155 O22         0.2450    0.3670    1.1350 o         1 MOL     -0.730537
    156 O23        -0.4550    2.1210    0.0640 o         1 MOL     -0.730537
    157 H67         4.6250    1.2310   -0.0400 hn        1 MOL      0.114680
    158 H68         4.1370    3.1020    2.0260 h1        1 MOL      0.135532
    159 H69         2.3020    1.7100    2.5490 hc        1 MOL      0.063491
    160 H70         2.9000    0.4350    1.4560 hc        1 MOL      0.063491
    161 H71         2.3420    1.7650   -0.4910 hc        1 MOL      0.088078
    162 H72         1.8970    3.0700    0.6190 hc        1 MOL      0.088078
    163 N14         5.7930    0.3840    2.4760 n         1 MOL     -0.009918
    164 C55         6.6660   -0.4430    3.3310 c3        1 MOL     -0.229702
    165 H73         6.2920   -1.4670    3.3480 h1        1 MOL      0.084622
    166 H74         7.6810   -0.4340    2.9330 h1        1 MOL      0.084622
    167 H75         6.6690   -0.0420    4.3450 h1        1 MOL      0.084622
    168 H76         5.6340    0.1100    1.5180 hn        1 MOL      0.026019
    169 Ca1        -2.1650    0.0920   -0.2290 Ca        1 MOL      1.738174
    170 O24        -1.8620   -0.0920    2.5490 oh        1 MOL     -0.860440
    171 H77        -1.7980    0.2530    3.4440 ho        1 MOL      0.420285
    172 H78        -0.9740   -0.0360    2.2170 ho        1 MOL      0.420285
    173 O25        -3.9370   -1.2220    1.5380 oh        1 MOL     -0.860440
    174 H79        -4.6970   -0.9990    2.0690 ho        1 MOL      0.420285
    175 H80        -3.1930   -1.0660    2.1210 ho        1 MOL      0.420285
@<TRIPOS>BOND
     1    1    2 1   
     2    1    4 1   
     3    1    5 1   
     4    1    6 1   
     5    2    3 2   
     6    2    7 1   
     7    7    8 1   
     8    7   15 1   
     9    8    9 1   
    10    8   11 1   
    11    8   16 1   
    12    9   10 2   
    13    9   19 1   
    14   11   12 1   
    15   11   17 1   
    16   11   18 1   
    17   12   13 1   
    18   12   14 1   
    19   19   20 1   
    20   19   24 1   
    21   20   21 1   
    22   20   23 1   
    23   20   25 1   
    24   21   22 2   
    25   21   29 1   
    26   23   26 1   
    27   23   27 1   
    28   23   28 1   
    29   29   30 1   
    30   29   37 1   
    31   30   31 1   
    32   30   33 1   
    33   30   38 1   
    34   31   32 2   
    35   31   41 1   
    36   33   34 1   
    37   33   39 1   
    38   33   40 1   
    39   34   35 1   
    40   34   36 1   
    41   41   42 1   
    42   41   45 1   
    43   42   43 1   
    44   42   46 1   
    45   42   47 1   
    46   43   44 2   
    47   43   48 1   
    48   48   49 1   
    49   48   56 1   
    50   49   50 1   
    51   49   52 1   
    52   49   57 1   
    53   50   51 2   
    54   50   62 1   
    55   52   53 1   
    56   52   58 1   
    57   52   59 1   
    58   53   54 1   
    59   53   55 2   
    60   54   60 1   
    61   54   61 1   
    62   62   63 1   
    63   62   66 1   
    64   63   64 1   
    65   63   67 1   
    66   63   68 1   
    67   64   65 2   
    68   64   69 1   
    69   69   70 1   
    70   69   76 1   
    71   70   71 1   
    72   70   73 1   
    73   70   77 1   
    74   71   72 2   
    75   71   83 1   
    76   73   74 1   
    77   73   75 1   
    78   73   78 1   
    79   74   80 1   
    80   74   81 1   
    81   74   82 1   
    82   75   79 1   
    83   83   84 1   
    84   83   91 1   
    85   84   85 1   
    86   84   87 1   
    87   84   92 1   
    88   85   86 2   
    89   85  102 1   
    90   87   88 1   
    91   87   89 1   
    92   87   93 1   
    93   88   90 1   
    94   88   94 1   
    95   88   95 1   
    96   89   96 1   
    97   89   97 1   
    98   89   98 1   
    99   90   99 1   
   100   90  100 1   
   101   90  101 1   
   102  102  103 1   
   103  102  110 1   
   104  103  104 1   
   105  103  106 1   
   106  103  111 1   
   107  104  105 2   
   108  104  114 1   
   109  106  107 1   
   110  106  112 1   
   111  106  113 1   
   112  107  108 1   
   113  107  109 1   
   114  114  115 1   
   115  114  125 1   
   116  115  116 1   
   117  115  118 1   
   118  115  126 1   
   119  116  117 2   
   120  116  134 1   
   121  118  119 1   
   122  118  127 1   
   123  118  128 1   
   124  119  120 ar  
   125  119  121 ar  
   126  120  122 ar  
   127  120  129 1   
   128  121  123 ar  
   129  121  130 1   
   130  122  124 ar  
   131  122  131 1   
   132  123  124 ar  
   133  123  132 1   
   134  124  133 1   
   135  134  135 1   
   136  134  140 1   
   137  135  136 1   
   138  135  138 1   
   139  135  141 1   
   140  136  137 2   
   141  136  148 1   
   142  138  139 1   
   143  138  142 1   
   144  138  143 1   
   145  139  140 1   
   146  139  144 1   
   147  139  145 1   
   148  140  146 1   
   149  140  147 1   
   150  148  149 1   
   151  148  157 1   
   152  149  150 1   
   153  149  152 1   
   154  149  158 1   
   155  150  151 2   
   156  150  163 1   
   157  152  153 1   
   158  152  159 1   
   159  152  160 1   
   160  153  154 1   
   161  153  161 1   
   162  153  162 1   
   163  154  155 1   
   164  154  156 1   
   165  163  164 1   
   166  163  168 1   
   167  164  165 1   
   168  164  166 1   
   169  164  167 1   
   170  170  171 1   
   171  170  172 1   
   172  173  174 1   
   173  173  175 1   
@<TRIPOS>SUBSTRUCTURE
     1 MOL         1 TEMP              0 ****  ****    0 ROOT
