@<TRIPOS>MOLECULE
MOL
  175   173     1     0     0
SMALL
resp


@<TRIPOS>ATOM
      1 C1          0.5510    3.5090    5.6530 c3        1 MOL     -0.497367
      2 C2         -0.0860    3.6950    4.2720 c         1 MOL      0.721149
      3 O1          0.6040    3.9900    3.2880 o         1 MOL     -0.541366
      4 H1          1.0700    2.5510    5.6870 hc        1 MOL      0.124438
      5 H2          1.2630    4.3140    5.8370 hc        1 MOL      0.124438
      6 H3         -0.2250    3.5290    6.4180 hc        1 MOL      0.124438
      7 N1         -1.4480    3.6090    4.1990 n         1 MOL     -0.633511
      8 C3         -2.1690    3.4080    2.9420 c3        1 MOL      0.253016
      9 C4         -2.1430    4.6950    2.0110 c         1 MOL      0.503793
     10 O2         -2.6100    5.7520    2.4600 o         1 MOL     -0.585706
     11 C5         -3.6380    2.9860    3.1760 c3        1 MOL     -0.312284
     12 C6         -4.2840    2.4230    1.9190 c         1 MOL      0.844768
     13 O3         -3.6550    2.1890    0.8790 o         1 MOL     -0.717930
     14 O4         -5.4690    2.0510    2.0220 o         1 MOL     -0.717930
     15 H4         -2.0160    3.4500    5.0180 hn        1 MOL      0.319903
     16 H5         -1.6630    2.6100    2.4060 h1        1 MOL     -0.014643
     17 H6         -4.2790    3.8080    3.4970 hc        1 MOL      0.066967
     18 H7         -3.7180    2.1710    3.8960 hc        1 MOL      0.066967
     19 N2         -1.7880    4.5300    0.7560 n         1 MOL     -0.403638
     20 C7         -2.0860    5.4360   -0.3100 c3        1 MOL      0.428789
     21 C8         -3.2950    5.1920   -1.2170 c         1 MOL      0.360706
     22 O5         -3.6500    6.1620   -1.9390 o         1 MOL     -0.572651
     23 C9         -0.8080    5.6320   -1.1800 c3        1 MOL     -0.365964
     24 H8         -1.4090    3.6460    0.4290 hn        1 MOL      0.235547
     25 H9         -2.3370    6.4260    0.0640 h1        1 MOL     -0.027376
     26 H10        -1.0500    6.3180   -2.0020 hc        1 MOL      0.082487
     27 H11        -0.0100    5.9690   -0.5100 hc        1 MOL      0.082487
     28 H12        -0.4850    4.6800   -1.5930 hc        1 MOL      0.082487
     29 N3         -3.9030    4.0010   -1.2710 n         1 MOL     -0.280926
     30 C10        -4.9210    3.6500   -2.3700 c3        1 MOL      0.183330
     31 C11        -6.2270    2.9930   -1.9450 c         1 MOL      0.264172
     32 O6         -7.2710    3.2550   -2.6100 o         1 MOL     -0.543750
     33 C12        -4.2460    2.9050   -3.4970 c3        1 MOL     -0.095503
     34 C13        -3.3460    1.7260   -3.0960 c         1 MOL      0.626691
     35 O7         -3.6120    1.0180   -2.0870 o         1 MOL     -0.654665
     36 O8         -2.4320    1.4740   -3.9250 o         1 MOL     -0.654665
     37 H13        -3.6880    3.3560   -0.5230 hn        1 MOL      0.136604
     38 H14        -5.2350    4.5990   -2.8180 h1        1 MOL      0.052835
     39 H15        -3.6690    3.7050   -3.9600 hc        1 MOL      0.025620
     40 H16        -4.9010    2.5730   -4.2970 hc        1 MOL      0.025620
     41 N4         -6.1770    2.0950   -0.9100 n         1 MOL     -0.031109
     42 C14        -7.3140    1.2620   -0.4770 c3        1 MOL     -0.158302
     43 C15        -7.3070   -0.1300   -1.0290 c         1 MOL      0.564650
     44 O9         -8.2580   -0.8790   -0.7310 o         1 MOL     -0.650368
     45 H17        -5.3360    2.0890   -0.3460 hn        1 MOL      0.094714
     46 H18        -8.3190    1.6640   -0.6410 h1        1 MOL      0.099390
     47 H19        -7.3610    1.1270    0.6020 h1        1 MOL      0.099390
     48 N5         -6.3280   -0.6150   -1.7560 n         1 MOL     -0.367288
     49 C16        -6.1870   -2.0310   -2.2110 c3        1 MOL      0.075501
     50 C17        -6.0790   -3.2520   -1.2450 c         1 MOL      0.447954
     51 O10        -5.9120   -4.3800   -1.6850 o         1 MOL     -0.518110
     52 C18        -5.0630   -2.0210   -3.2690 c3        1 MOL     -0.261856
     53 C19        -3.6730   -2.3040   -2.7060 c         1 MOL      0.591813
     54 N6         -2.7090   -2.2380   -3.5730 n         1 MOL     -0.642761
     55 O11        -3.4480   -2.1680   -1.4730 o         1 MOL     -0.550131
     56 H20        -5.4960   -0.0620   -1.8710 hn        1 MOL      0.231393
     57 H21        -7.1170   -2.2830   -2.7320 h1        1 MOL      0.080281
     58 H22        -5.0400   -1.0430   -3.7620 hc        1 MOL      0.077134
     59 H23        -5.2060   -2.8290   -3.9820 hc        1 MOL      0.077134
     60 H24        -2.8620   -2.3260   -4.5660 hn        1 MOL      0.347909
     61 H25        -1.7750   -2.0670   -3.2260 hn        1 MOL      0.347909
     62 N7         -6.3100   -2.9410    0.0380 n         1 MOL     -0.195248
     63 C20        -6.3930   -4.0050    1.0790 c3        1 MOL     -0.339678
     64 C21        -5.0240   -4.3680    1.6500 c         1 MOL      0.580075
     65 O12        -4.9930   -5.0060    2.7260 o         1 MOL     -0.595662
     66 H26        -6.5150   -1.9930    0.2870 hn        1 MOL      0.253508
     67 H27        -6.8790   -4.8710    0.6480 h1        1 MOL      0.152120
     68 H28        -6.9240   -3.6050    1.9440 h1        1 MOL      0.152120
     69 N8         -3.8940   -4.0260    1.0750 n         1 MOL     -0.293871
     70 C22        -2.5250   -4.6100    1.2790 c3        1 MOL     -0.127911
     71 C23        -1.3960   -3.5860    1.2790 c         1 MOL      0.769660
     72 O13        -1.4560   -2.6460    0.5170 o         1 MOL     -0.591279
     73 C24        -2.1850   -5.7250    0.2350 c3        1 MOL      0.574249
     74 C25        -3.2640   -6.9100    0.2670 c3        1 MOL     -0.645427
     75 O14        -2.2290   -5.1370   -1.0080 oh        1 MOL     -0.602702
     76 H29        -4.0260   -3.3940    0.2950 hn        1 MOL      0.134718
     77 H30        -2.5340   -5.0770    2.2640 h1        1 MOL      0.038428
     78 H31        -1.1960   -6.1160    0.4910 h1        1 MOL     -0.073598
     79 H32        -1.8680   -4.2480   -1.0110 ho        1 MOL      0.363543
     80 H33        -4.1860   -6.5520   -0.1760 hc        1 MOL      0.169062
     81 H34        -2.8540   -7.7060   -0.3500 hc        1 MOL      0.169062
     82 H35        -3.5960   -7.2170    1.2620 hc        1 MOL      0.169062
     83 N9         -0.3310   -3.8680    2.0000 n         1 MOL     -0.683513
     84 C26         0.9060   -3.0380    1.9360 c3        1 MOL     -0.083726
     85 C27         1.5580   -3.2030    0.5330 c         1 MOL      0.669333
     86 O15         1.7870   -4.2630    0.0270 o         1 MOL     -0.579072
     87 C28         1.8730   -3.3750    3.1020 c3        1 MOL      0.154760
     88 C29         1.1310   -3.0270    4.4230 c3        1 MOL      0.047210
     89 C30         3.1460   -2.5270    2.9060 c3        1 MOL     -0.234742
     90 C31         2.0270   -3.1420    5.6610 c3        1 MOL     -0.184955
     91 H36        -0.2380   -4.7500    2.4820 hn        1 MOL      0.341200
     92 H37         0.5890   -1.9970    2.0250 h1        1 MOL      0.154296
     93 H38         2.0710   -4.4520    3.1220 hc        1 MOL     -0.010075
     94 H39         0.2550   -3.6590    4.5420 hc        1 MOL      0.010230
     95 H40         0.8630   -1.9780    4.3870 hc        1 MOL      0.010230
     96 H41         3.9080   -2.8490    3.6260 hc        1 MOL      0.049412
     97 H42         3.5340   -2.6320    1.8960 hc        1 MOL      0.049412
     98 H43         2.8340   -1.4960    3.0360 hc        1 MOL      0.049412
     99 H44         2.7490   -2.3250    5.6250 hc        1 MOL      0.038952
    100 H45         1.4130   -3.1090    6.5650 hc        1 MOL      0.038952
    101 H46         2.6000   -4.0610    5.6670 hc        1 MOL      0.038952
    102 N10         1.7440   -2.0210   -0.1390 n         1 MOL     -0.198154
    103 C32         2.5700   -1.8610   -1.3700 c3        1 MOL     -0.003267
    104 C33         3.9990   -1.4360   -0.9880 c         1 MOL      0.378652
    105 O16         4.3140   -0.9920    0.1170 o         1 MOL     -0.156434
    106 C34         1.8650   -0.8710   -2.3320 c3        1 MOL     -0.286511
    107 C35         0.3770   -1.1440   -2.5180 c         1 MOL      0.858926
    108 O17        -0.4300   -0.4950   -1.8340 o         1 MOL     -0.711928
    109 O18         0.0150   -1.8850   -3.4150 o         1 MOL     -0.711928
    110 H47         1.5140   -1.1710    0.3550 hn        1 MOL     -0.138993
    111 H48         2.5020   -2.8210   -1.8780 h1        1 MOL      0.095385
    112 H49         2.3340   -0.7690   -3.3170 hc        1 MOL      0.079289
    113 H50         1.8650    0.1210   -1.8930 hc        1 MOL      0.079289
    114 N11         4.9800   -1.6000   -1.8200 n         1 MOL     -0.606472
    115 C36         6.3780   -1.3440   -1.4480 c3        1 MOL      0.311339
    116 C37         6.8120    0.0840   -1.0350 c         1 MOL      0.307228
    117 O19         7.6130    0.2110   -0.0890 o         1 MOL     -0.459278
    118 C38         7.4260   -1.8920   -2.4610 c3        1 MOL     -0.199665
    119 C39         8.8710   -1.5970   -2.1930 ca        1 MOL      0.161219
    120 C40         9.4340   -2.2820   -1.1520 ca        1 MOL     -0.294133
    121 C41         9.5750   -0.5510   -2.8750 ca        1 MOL     -0.294133
    122 C42        10.7370   -2.0130   -0.6680 ca        1 MOL      0.048516
    123 C43        10.8730   -0.3320   -2.4540 ca        1 MOL      0.048516
    124 C44        11.4320   -1.0470   -1.4220 ca        1 MOL     -0.244887
    125 H51         4.7710   -2.0370   -2.7080 hn        1 MOL      0.317822
    126 H52         6.5260   -1.8860   -0.5240 h1        1 MOL      0.052389
    127 H53         7.1490   -1.5260   -3.4550 hc        1 MOL      0.058788
    128 H54         7.3320   -2.9790   -2.4990 hc        1 MOL      0.058788
    129 H55         8.8710   -3.0830   -0.6840 ha        1 MOL      0.150354
    130 H56         9.1240    0.0210   -3.6710 ha        1 MOL      0.150354
    131 H57        11.1300   -2.6630    0.0960 ha        1 MOL      0.079279
    132 H58        11.4320    0.4190   -2.9860 ha        1 MOL      0.079279
    133 H59        12.4500   -0.8890   -1.1080 ha        1 MOL      0.110288
    134 N12         6.3600    1.1370   -1.7080 n         1 MOL     -0.049531
    135 C45         6.5300    2.5530   -1.3100 c3        1 MOL      0.010520
    136 C46         5.8180    2.7610    0.0730 c         1 MOL      0.312073
    137 O20         6.2200    3.6110    0.8690 o         1 MOL     -0.475124
    138 C47         6.0080    3.3870   -2.4510 c3        1 MOL      0.066020
    139 C48         5.8700    2.4170   -3.6620 c3        1 MOL     -0.184365
    140 C49         5.7160    1.0230   -3.0250 c3        1 MOL      0.061290
    141 H60         7.5770    2.8300   -1.2100 h1        1 MOL      0.050598
    142 H61         5.0380    3.8190   -2.2210 hc        1 MOL      0.020285
    143 H62         6.6110    4.2670   -2.6880 hc        1 MOL      0.020285
    144 H63         4.9890    2.5540   -4.2840 hc        1 MOL      0.058778
    145 H64         6.7440    2.3970   -4.3120 hc        1 MOL      0.058778
    146 H65         4.6680    0.8080   -2.8030 h1        1 MOL      0.019292
    147 H66         6.2250    0.3050   -3.6690 h1        1 MOL      0.019292
    148 N13         4.7600    1.9450    0.3470 n         1 MOL     -0.197277
    149 C50         4.1170    1.9600    1.6480 c3        1 MOL     -0.061944
    150 C51         4.9370    1.1670    2.6950 c         1 MOL      0.423632
    151 O21         5.0290    1.4980    3.8970 o         1 MOL     -0.570467
    152 C52         2.6800    1.4260    1.5030 c3        1 MOL     -0.067263
    153 C53         1.8420    2.1300    0.4190 c3        1 MOL     -0.311861
    154 C54         0.3670    1.6670    0.4190 c         1 MOL      0.753499
    155 O22        -0.0230    0.6310    0.9680 o         1 MOL     -0.700773
    156 O23        -0.4650    2.2520   -0.2830 o         1 MOL     -0.700773
    157 H67         4.3480    1.3860   -0.3890 hn        1 MOL      0.237696
    158 H68         4.0400    2.9650    2.0520 h1        1 MOL      0.117140
    159 H69         2.3090    1.5310    2.5280 hc        1 MOL      0.087727
    160 H70         2.5800    0.3780    1.2540 hc        1 MOL      0.087727
    161 H71         2.2650    1.8630   -0.5410 hc        1 MOL      0.104589
    162 H72         1.7920    3.2030    0.6100 hc        1 MOL      0.104589
    163 N14         5.6720    0.1310    2.2720 n         1 MOL      0.091719
    164 C55         6.5900   -0.6260    3.1530 c3        1 MOL     -0.183614
    165 H73         6.7760   -1.6100    2.7230 h1        1 MOL      0.072087
    166 H74         7.5330   -0.0870    3.2460 h1        1 MOL      0.072087
    167 H75         6.1370   -0.7400    4.1390 h1        1 MOL      0.072087
    168 H76         5.4270   -0.1440    1.3340 hn        1 MOL     -0.175092
    169 Ca1        -2.2990    0.0310   -0.1410 Ca        1 MOL      1.721245
    170 O24        -1.8940   -0.4640    2.5180 oh        1 MOL     -0.836516
    171 H77        -2.2790   -0.3590    3.3980 ho        1 MOL      0.394761
    172 H78        -1.1310    0.1020    2.5280 ho        1 MOL      0.394761
    173 O25        -4.7950   -0.3050    1.0600 oh        1 MOL     -0.836516
    174 H79        -4.9730    0.4930    1.5550 ho        1 MOL      0.394761
    175 H80        -5.2200   -1.0000    1.5730 ho        1 MOL      0.394761
@<TRIPOS>BOND
     1    1    2 1   
     2    1    4 1   
     3    1    5 1   
     4    1    6 1   
     5    2    3 2   
     6    2    7 1   
     7    7    8 1   
     8    7   15 1   
     9    8    9 1   
    10    8   11 1   
    11    8   16 1   
    12    9   10 2   
    13    9   19 1   
    14   11   12 1   
    15   11   17 1   
    16   11   18 1   
    17   12   13 1   
    18   12   14 1   
    19   19   20 1   
    20   19   24 1   
    21   20   21 1   
    22   20   23 1   
    23   20   25 1   
    24   21   22 2   
    25   21   29 1   
    26   23   26 1   
    27   23   27 1   
    28   23   28 1   
    29   29   30 1   
    30   29   37 1   
    31   30   31 1   
    32   30   33 1   
    33   30   38 1   
    34   31   32 2   
    35   31   41 1   
    36   33   34 1   
    37   33   39 1   
    38   33   40 1   
    39   34   35 1   
    40   34   36 1   
    41   41   42 1   
    42   41   45 1   
    43   42   43 1   
    44   42   46 1   
    45   42   47 1   
    46   43   44 2   
    47   43   48 1   
    48   48   49 1   
    49   48   56 1   
    50   49   50 1   
    51   49   52 1   
    52   49   57 1   
    53   50   51 2   
    54   50   62 1   
    55   52   53 1   
    56   52   58 1   
    57   52   59 1   
    58   53   54 1   
    59   53   55 2   
    60   54   60 1   
    61   54   61 1   
    62   62   63 1   
    63   62   66 1   
    64   63   64 1   
    65   63   67 1   
    66   63   68 1   
    67   64   65 2   
    68   64   69 1   
    69   69   70 1   
    70   69   76 1   
    71   70   71 1   
    72   70   73 1   
    73   70   77 1   
    74   71   72 2   
    75   71   83 1   
    76   73   74 1   
    77   73   75 1   
    78   73   78 1   
    79   74   80 1   
    80   74   81 1   
    81   74   82 1   
    82   75   79 1   
    83   83   84 1   
    84   83   91 1   
    85   84   85 1   
    86   84   87 1   
    87   84   92 1   
    88   85   86 2   
    89   85  102 1   
    90   87   88 1   
    91   87   89 1   
    92   87   93 1   
    93   88   90 1   
    94   88   94 1   
    95   88   95 1   
    96   89   96 1   
    97   89   97 1   
    98   89   98 1   
    99   90   99 1   
   100   90  100 1   
   101   90  101 1   
   102  102  103 1   
   103  102  110 1   
   104  103  104 1   
   105  103  106 1   
   106  103  111 1   
   107  104  105 2   
   108  104  114 1   
   109  106  107 1   
   110  106  112 1   
   111  106  113 1   
   112  107  108 1   
   113  107  109 1   
   114  114  115 1   
   115  114  125 1   
   116  115  116 1   
   117  115  118 1   
   118  115  126 1   
   119  116  117 2   
   120  116  134 1   
   121  118  119 1   
   122  118  127 1   
   123  118  128 1   
   124  119  120 ar  
   125  119  121 ar  
   126  120  122 ar  
   127  120  129 1   
   128  121  123 ar  
   129  121  130 1   
   130  122  124 ar  
   131  122  131 1   
   132  123  124 ar  
   133  123  132 1   
   134  124  133 1   
   135  134  135 1   
   136  134  140 1   
   137  135  136 1   
   138  135  138 1   
   139  135  141 1   
   140  136  137 2   
   141  136  148 1   
   142  138  139 1   
   143  138  142 1   
   144  138  143 1   
   145  139  140 1   
   146  139  144 1   
   147  139  145 1   
   148  140  146 1   
   149  140  147 1   
   150  148  149 1   
   151  148  157 1   
   152  149  150 1   
   153  149  152 1   
   154  149  158 1   
   155  150  151 2   
   156  150  163 1   
   157  152  153 1   
   158  152  159 1   
   159  152  160 1   
   160  153  154 1   
   161  153  161 1   
   162  153  162 1   
   163  154  155 1   
   164  154  156 1   
   165  163  164 1   
   166  163  168 1   
   167  164  165 1   
   168  164  166 1   
   169  164  167 1   
   170  170  171 1   
   171  170  172 1   
   172  173  174 1   
   173  173  175 1   
@<TRIPOS>SUBSTRUCTURE
     1 MOL         1 TEMP              0 ****  ****    0 ROOT
