@<TRIPOS>MOLECULE
MOL
  189   185     1     0     0
SMALL
resp


@<TRIPOS>ATOM
      1 C1         -0.3780    2.6680   -5.1570 c3        1 MOL     -0.352317
      2 C2          0.2360    2.5800   -3.8040 c         1 MOL      0.751632
      3 O1         -0.3630    2.9200   -2.7860 o         1 MOL     -0.657096
      4 H1         -1.4410    2.8880   -5.0600 hc        1 MOL      0.090345
      5 H2          0.1050    3.4640   -5.7250 hc        1 MOL      0.090345
      6 H3         -0.2500    1.7190   -5.6770 hc        1 MOL      0.090345
      7 N1          1.3890    1.8350   -3.7490 n         1 MOL     -0.601319
      8 C3          2.0320    1.5090   -2.4730 c3        1 MOL      0.204937
      9 C4          2.8000    2.7120   -1.9560 c         1 MOL      0.284950
     10 O2          3.9030    3.0190   -2.4220 o         1 MOL     -0.517338
     11 C5          2.9010    0.2650   -2.7110 c3        1 MOL     -0.172056
     12 C6          3.6830   -0.2100   -1.5370 c         1 MOL      0.858541
     13 O3          4.7340   -0.9020   -1.7970 o         1 MOL     -0.743554
     14 O4          3.2740    0.0420   -0.4260 o         1 MOL     -0.743554
     15 H4          1.8010    1.5540   -4.6300 hn        1 MOL      0.312597
     16 H5          1.3170    1.2360   -1.6970 h1        1 MOL      0.045177
     17 H6          3.6640    0.5750   -3.4300 hc        1 MOL      0.019642
     18 H7          2.3440   -0.6170   -3.0480 hc        1 MOL      0.019642
     19 N2          2.2440    3.3410   -0.8930 n         1 MOL      0.024266
     20 C7          2.6550    4.7050   -0.5580 c3        1 MOL     -0.029513
     21 C8          3.5260    4.8080    0.6740 c         1 MOL      0.402192
     22 O5          4.3150    5.7610    0.8070 o         1 MOL     -0.569540
     23 C9          1.4120    5.5990   -0.4460 c3        1 MOL      0.058942
     24 C10         0.8350    6.1550   -1.7390 c3        1 MOL      0.154120
     25 C11         1.8230    7.2630   -2.1660 c3        1 MOL     -0.164551
     26 C12         1.5050    7.7010   -3.5950 c3        1 MOL     -0.002867
     27 N3          0.5810    8.8950   -3.5470 n4        1 MOL     -0.423482
     28 H8          1.3210    3.0070   -0.6340 hn        1 MOL      0.189442
     29 H9          3.3490    5.0730   -1.3130 h1        1 MOL      0.062664
     30 H10         1.6640    6.4090    0.2400 hc        1 MOL     -0.014590
     31 H11         0.6410    5.0190    0.0650 hc        1 MOL     -0.014590
     32 H12        -0.1260    6.6030   -1.4900 hc        1 MOL     -0.032662
     33 H13         0.7830    5.3960   -2.5230 hc        1 MOL     -0.032662
     34 H14         2.8480    6.8720   -2.1720 hc        1 MOL      0.072845
     35 H15         1.8100    8.0930   -1.4570 hc        1 MOL      0.072845
     36 H16         1.1490    6.8340   -4.1490 hx        1 MOL      0.108178
     37 H17         2.4590    8.0370   -4.0010 hx        1 MOL      0.108178
     38 H18        -0.2810    8.4850   -3.2060 hn        1 MOL      0.344325
     39 H19         0.9490    9.5370   -2.8530 hn        1 MOL      0.344325
     40 H20         0.4280    9.3740   -4.4260 hn        1 MOL      0.344325
     41 N4          3.4770    3.7780    1.5220 n         1 MOL     -0.218499
     42 C13         4.4470    3.4970    2.5840 c3        1 MOL      0.195428
     43 C14         5.5120    2.4660    2.2110 c         1 MOL      0.327213
     44 O6          6.2800    1.9980    3.0840 o         1 MOL     -0.493157
     45 C15         3.6640    3.2260    3.8750 c3        1 MOL     -0.386359
     46 C16         2.6440    2.0660    3.7280 c         1 MOL      0.933436
     47 O7          1.6300    2.0080    4.5030 o         1 MOL     -0.762600
     48 O8          2.8270    1.2330    2.8290 o         1 MOL     -0.762600
     49 H21         2.8420    3.0040    1.3610 hn        1 MOL      0.041970
     50 H22         5.0360    4.4020    2.7370 h1        1 MOL      0.071019
     51 H23         3.2270    4.1900    4.1580 hc        1 MOL      0.078961
     52 H24         4.3230    2.9800    4.7090 hc        1 MOL      0.078961
     53 N5          5.5850    2.1560    0.9040 n         1 MOL     -0.166977
     54 C17         6.8380    1.6640    0.3210 c3        1 MOL     -0.171006
     55 C18         7.2610    0.1880    0.7810 c         1 MOL      0.536628
     56 O9          8.4220   -0.1660    0.7040 o         1 MOL     -0.572218
     57 H25         4.8970    2.5990    0.3130 hn        1 MOL      0.205171
     58 H26         7.5850    2.3330    0.7330 h1        1 MOL      0.094757
     59 H27         6.9090    1.7480   -0.7640 h1        1 MOL      0.094757
     60 N6          6.2720   -0.6680    1.1640 n         1 MOL     -0.119257
     61 C19         6.5620   -2.0590    1.6560 c3        1 MOL     -0.081294
     62 C20         6.4840   -3.2560    0.5990 c         1 MOL      0.512798
     63 O10         6.5730   -4.4100    1.0330 o         1 MOL     -0.518915
     64 C21         5.7470   -2.3140    2.9410 c3        1 MOL     -0.188067
     65 C22         4.2810   -2.1030    2.7750 c         1 MOL      0.747500
     66 O11         3.5890   -1.7480    3.7750 o         1 MOL     -0.687066
     67 O12         3.6990   -2.1640    1.6460 o         1 MOL     -0.687066
     68 H28         5.3600   -0.5870    0.7400 hn        1 MOL      0.045906
     69 H29         7.6080   -2.2310    1.8980 h1        1 MOL      0.111804
     70 H30         6.1080   -1.5900    3.6780 hc        1 MOL      0.066605
     71 H31         5.8770   -3.3540    3.2200 hc        1 MOL      0.066605
     72 N7          6.3570   -2.9370   -0.7040 n         1 MOL     -0.409358
     73 C23         6.2090   -3.9650   -1.6720 c3        1 MOL     -0.103658
     74 C24         4.8830   -4.6890   -1.6370 c         1 MOL      0.495456
     75 O13         4.8260   -5.7780   -2.1360 o         1 MOL     -0.563082
     76 H32         6.1100   -1.9880   -0.9630 hn        1 MOL      0.323842
     77 H33         6.9770   -4.7320   -1.5540 h1        1 MOL      0.097786
     78 H34         6.3220   -3.5790   -2.6840 h1        1 MOL      0.097786
     79 N8          3.8610   -4.1330   -0.9980 n         1 MOL     -0.138229
     80 C25         2.5340   -4.7150   -0.9030 c3        1 MOL     -0.380900
     81 C26         1.4580   -3.6030   -1.0620 c         1 MOL      0.778173
     82 O14         1.5540   -2.5100   -0.5800 o         1 MOL     -0.576484
     83 C27         2.3730   -5.5030    0.4160 c3        1 MOL      0.464675
     84 C28         3.3680   -6.6190    0.7950 c3        1 MOL     -0.244103
     85 O15         2.4430   -4.6460    1.6160 oh        1 MOL     -0.598906
     86 H35         4.0980   -3.3220   -0.4320 hn        1 MOL      0.146180
     87 H36         2.3920   -5.4330   -1.7160 h1        1 MOL      0.135777
     88 H37         1.3580   -5.9140    0.4010 h1        1 MOL     -0.026390
     89 H38         2.9010   -3.8570    1.3150 ho        1 MOL      0.370349
     90 H39         3.3660   -7.3900    0.0250 hc        1 MOL      0.061436
     91 H40         4.3400   -6.1730    1.0040 hc        1 MOL      0.061436
     92 H41         3.0470   -7.1420    1.6950 hc        1 MOL      0.061436
     93 N9          0.3590   -3.8880   -1.8130 n         1 MOL     -0.642074
     94 C29        -0.7250   -2.9750   -2.0010 c3        1 MOL      0.133084
     95 C30        -1.9370   -3.4910   -1.2730 c         1 MOL      0.484188
     96 O16        -2.3440   -4.6270   -1.6040 o         1 MOL     -0.544789
     97 C31        -1.0550   -2.5660   -3.4460 c3        1 MOL      0.217653
     98 C32         0.1870   -2.0990   -4.3320 c3        1 MOL      0.109989
     99 C33        -2.1100   -1.5440   -3.5770 c3        1 MOL     -0.408477
    100 C34        -0.0270   -2.4570   -5.8240 c3        1 MOL     -0.249912
    101 H42         0.2880   -4.7420   -2.3460 hn        1 MOL      0.311607
    102 H43        -0.5280   -1.9890   -1.5720 h1        1 MOL      0.045633
    103 H44        -1.4750   -3.4940   -3.8320 hc        1 MOL     -0.027273
    104 H45         1.0770   -2.6580   -4.0240 hc        1 MOL     -0.003595
    105 H46         0.2830   -1.0270   -4.2260 hc        1 MOL     -0.003595
    106 H47        -2.3510   -1.4330   -4.6310 hc        1 MOL      0.071508
    107 H48        -2.9900   -1.7630   -2.9680 hc        1 MOL      0.071508
    108 H49        -1.7770   -0.5700   -3.2050 hc        1 MOL      0.071508
    109 H50         0.7840   -2.0520   -6.4280 hc        1 MOL      0.056673
    110 H51         0.0460   -3.5440   -5.8840 hc        1 MOL      0.056673
    111 H52        -0.9330   -1.9670   -6.2020 hc        1 MOL      0.056673
    112 N10        -2.5340   -2.6330   -0.3830 n         1 MOL     -0.200992
    113 C35        -3.7340   -2.9250    0.4320 c3        1 MOL      0.004857
    114 C36        -5.0810   -2.6130   -0.2210 c         1 MOL      0.300709
    115 O17        -5.0410   -1.9590   -1.3210 o         1 MOL     -0.336829
    116 C37        -3.6730   -2.2770    1.8390 c3        1 MOL      0.143421
    117 C38        -2.4690   -2.6780    2.7210 c3        1 MOL     -0.736064
    118 O18        -3.7130   -0.8470    1.6980 oh        1 MOL     -0.364724
    119 H53        -2.0910   -1.7370   -0.2200 hn        1 MOL      0.194808
    120 H54        -3.8270   -3.9990    0.6020 h1        1 MOL      0.068138
    121 H55        -4.5580   -2.6240    2.3700 h1        1 MOL      0.035178
    122 H56        -3.6210   -0.4420    2.5680 ho        1 MOL      0.352070
    123 H57        -1.5940   -2.0190    2.6610 hc        1 MOL      0.209812
    124 H58        -2.9250   -2.5590    3.7010 hc        1 MOL      0.209812
    125 H59        -2.1990   -3.7210    2.5480 hc        1 MOL      0.209812
    126 N11        -6.2340   -3.0260    0.3650 n         1 MOL     -0.160847
    127 C39        -7.5530   -2.5300   -0.2000 c3        1 MOL     -0.489165
    128 C40        -7.7750   -1.0000    0.0800 c         1 MOL      0.448040
    129 O19        -8.3940   -0.2910   -0.6480 o         1 MOL     -0.453065
    130 C41        -8.7260   -3.2850    0.3280 c3        1 MOL      0.590075
    131 C42        -8.7550   -4.6950   -0.1930 c3        1 MOL     -0.353328
    132 O20        -8.8350   -3.3310    1.7700 oh        1 MOL     -0.640642
    133 H60        -6.2010   -3.6340    1.1790 hn        1 MOL      0.222212
    134 H61        -7.5200   -2.6950   -1.2780 h1        1 MOL      0.204071
    135 H62        -9.5890   -2.7900   -0.1000 h1        1 MOL      0.030875
    136 H63        -7.9430   -3.5870    2.0110 ho        1 MOL      0.374763
    137 H64        -8.7600   -4.6720   -1.2860 hc        1 MOL      0.082716
    138 H65        -7.8740   -5.1510    0.2590 hc        1 MOL      0.082716
    139 H66        -9.7170   -5.1490    0.0360 hc        1 MOL      0.082716
    140 N12        -7.0440   -0.4700    1.0830 n         1 MOL     -0.247384
    141 C43        -7.0570    0.9700    1.4390 c3        1 MOL     -0.024744
    142 C44        -6.2760    1.6290    0.3210 c         1 MOL      0.300496
    143 O21        -6.8910    2.5390   -0.2190 o         1 MOL     -0.472055
    144 C45        -6.5430    1.1530    2.8440 c3        1 MOL     -0.037345
    145 C46        -6.3320    2.6150    3.1800 c3        1 MOL      0.129698
    146 C47        -5.8390    2.7530    4.5710 c3        1 MOL      0.047632
    147 C48        -6.0790    4.1550    5.1350 c3        1 MOL      0.063070
    148 N13        -5.4580    4.2740    6.4860 n4        1 MOL     -0.392643
    149 H67        -6.5860   -1.1130    1.7090 hn        1 MOL      0.135401
    150 H68        -8.1060    1.2820    1.3690 h1        1 MOL      0.122383
    151 H69        -5.5530    0.6910    2.8640 hc        1 MOL     -0.002570
    152 H70        -7.3120    0.6610    3.4510 hc        1 MOL     -0.002570
    153 H71        -7.2320    3.1940    2.9680 hc        1 MOL     -0.015355
    154 H72        -5.5670    3.0460    2.5230 hc        1 MOL     -0.015355
    155 H73        -4.7580    2.6060    4.5950 hc        1 MOL     -0.014487
    156 H74        -6.3650    2.0020    5.1720 hc        1 MOL     -0.014487
    157 H75        -7.1470    4.3680    5.0860 hx        1 MOL      0.074531
    158 H76        -5.4950    4.7830    4.4590 hx        1 MOL      0.074531
    159 H77        -5.6590    5.2100    6.8130 hn        1 MOL      0.323214
    160 H78        -5.8120    3.5160    7.0460 hn        1 MOL      0.323214
    161 H79        -4.4460    4.2580    6.4820 hn        1 MOL      0.323214
    162 N14        -5.0060    1.2800    0.0120 n         1 MOL      0.033156
    163 C49        -4.2200    1.8340   -1.1130 c3        1 MOL     -0.333419
    164 C50        -4.8270    1.7420   -2.5050 c         1 MOL      0.447204
    165 O22        -4.9920    2.7440   -3.2030 o         1 MOL     -0.534607
    166 C51        -2.8100    1.2780   -1.1010 c3        1 MOL      0.051108
    167 C52        -1.9140    1.6430    0.0780 c3        1 MOL     -0.309310
    168 C53        -0.5560    0.9950    0.1350 c         1 MOL      0.747293
    169 O23        -0.4730   -0.2590   -0.0020 o         1 MOL     -0.715657
    170 O24         0.4250    1.6230    0.6300 o         1 MOL     -0.715657
    171 H80        -4.4630    0.5970    0.5270 hn        1 MOL      0.157965
    172 H81        -4.1440    2.8840   -0.8520 h1        1 MOL      0.101907
    173 H82        -2.2830    1.6640   -1.9800 hc        1 MOL      0.097436
    174 H83        -2.9570    0.1960   -1.1840 hc        1 MOL      0.097436
    175 H84        -2.4700    1.5050    1.0040 hc        1 MOL      0.061232
    176 H85        -1.7670    2.7210    0.0100 hc        1 MOL      0.061232
    177 N15        -5.3010    0.5590   -2.9480 n         1 MOL      0.036238
    178 C54        -5.9730    0.3630   -4.2360 c3        1 MOL     -0.459668
    179 H86        -7.0000    0.7240   -4.1680 h1        1 MOL      0.150872
    180 H87        -5.4440    0.9170   -5.0110 h1        1 MOL      0.150872
    181 H88        -5.9780   -0.6980   -4.4860 h1        1 MOL      0.150872
    182 H89        -5.0240   -0.2530   -2.4150 hn        1 MOL      0.083883
    183 Ca1         1.7660   -0.6270    1.4530 Ca        1 MOL      1.772019
    184 O25         0.7020   -3.0010    2.5270 oh        1 MOL     -0.894708
    185 H90         0.4410   -2.8940    3.4370 ho        1 MOL      0.407432
    186 H91         1.2330   -3.7880    2.5130 ho        1 MOL      0.407432
    187 O26        -0.1810   -0.0340    3.4230 oh        1 MOL     -0.894708
    188 H92        -0.9370   -0.2940    3.9590 ho        1 MOL      0.407432
    189 H93         0.0990    0.8120    3.7790 ho        1 MOL      0.407432
@<TRIPOS>BOND
     1    1    2 1   
     2    1    4 1   
     3    1    5 1   
     4    1    6 1   
     5    2    3 2   
     6    2    7 1   
     7    7    8 1   
     8    7   15 1   
     9    8    9 1   
    10    8   11 1   
    11    8   16 1   
    12    9   10 2   
    13    9   19 1   
    14   11   12 1   
    15   11   17 1   
    16   11   18 1   
    17   12   13 1   
    18   12   14 1   
    19   19   20 1   
    20   19   28 1   
    21   20   21 1   
    22   20   23 1   
    23   20   29 1   
    24   21   22 2   
    25   21   41 1   
    26   23   24 1   
    27   23   30 1   
    28   23   31 1   
    29   24   25 1   
    30   24   32 1   
    31   24   33 1   
    32   25   26 1   
    33   25   34 1   
    34   25   35 1   
    35   26   27 1   
    36   26   36 1   
    37   26   37 1   
    38   27   38 1   
    39   27   39 1   
    40   27   40 1   
    41   41   42 1   
    42   41   49 1   
    43   42   43 1   
    44   42   45 1   
    45   42   50 1   
    46   43   44 2   
    47   43   53 1   
    48   45   46 1   
    49   45   51 1   
    50   45   52 1   
    51   46   47 1   
    52   46   48 1   
    53   53   54 1   
    54   53   57 1   
    55   54   55 1   
    56   54   58 1   
    57   54   59 1   
    58   55   56 2   
    59   55   60 1   
    60   60   61 1   
    61   60   68 1   
    62   61   62 1   
    63   61   64 1   
    64   61   69 1   
    65   62   63 2   
    66   62   72 1   
    67   64   65 1   
    68   64   70 1   
    69   64   71 1   
    70   65   66 1   
    71   65   67 1   
    72   72   73 1   
    73   72   76 1   
    74   73   74 1   
    75   73   77 1   
    76   73   78 1   
    77   74   75 2   
    78   74   79 1   
    79   79   80 1   
    80   79   86 1   
    81   80   81 1   
    82   80   83 1   
    83   80   87 1   
    84   81   82 2   
    85   81   93 1   
    86   83   84 1   
    87   83   85 1   
    88   83   88 1   
    89   84   90 1   
    90   84   91 1   
    91   84   92 1   
    92   85   89 1   
    93   93   94 1   
    94   93  101 1   
    95   94   95 1   
    96   94   97 1   
    97   94  102 1   
    98   95   96 2   
    99   95  112 1   
   100   97   98 1   
   101   97   99 1   
   102   97  103 1   
   103   98  100 1   
   104   98  104 1   
   105   98  105 1   
   106   99  106 1   
   107   99  107 1   
   108   99  108 1   
   109  100  109 1   
   110  100  110 1   
   111  100  111 1   
   112  112  113 1   
   113  112  119 1   
   114  113  114 1   
   115  113  116 1   
   116  113  120 1   
   117  114  115 2   
   118  114  126 1   
   119  116  117 1   
   120  116  118 1   
   121  116  121 1   
   122  117  123 1   
   123  117  124 1   
   124  117  125 1   
   125  118  122 1   
   126  126  127 1   
   127  126  133 1   
   128  127  128 1   
   129  127  130 1   
   130  127  134 1   
   131  128  129 2   
   132  128  140 1   
   133  130  131 1   
   134  130  132 1   
   135  130  135 1   
   136  131  137 1   
   137  131  138 1   
   138  131  139 1   
   139  132  136 1   
   140  140  141 1   
   141  140  149 1   
   142  141  142 1   
   143  141  144 1   
   144  141  150 1   
   145  142  143 2   
   146  142  162 1   
   147  144  145 1   
   148  144  151 1   
   149  144  152 1   
   150  145  146 1   
   151  145  153 1   
   152  145  154 1   
   153  146  147 1   
   154  146  155 1   
   155  146  156 1   
   156  147  148 1   
   157  147  157 1   
   158  147  158 1   
   159  148  159 1   
   160  148  160 1   
   161  148  161 1   
   162  162  163 1   
   163  162  171 1   
   164  163  164 1   
   165  163  166 1   
   166  163  172 1   
   167  164  165 2   
   168  164  177 1   
   169  166  167 1   
   170  166  173 1   
   171  166  174 1   
   172  167  168 1   
   173  167  175 1   
   174  167  176 1   
   175  168  169 1   
   176  168  170 1   
   177  177  178 1   
   178  177  182 1   
   179  178  179 1   
   180  178  180 1   
   181  178  181 1   
   182  184  185 1   
   183  184  186 1   
   184  187  188 1   
   185  187  189 1   
@<TRIPOS>SUBSTRUCTURE
     1 MOL         1 TEMP              0 ****  ****    0 ROOT
