@<TRIPOS>MOLECULE
MOL
  179   176     1     0     0
SMALL
resp


@<TRIPOS>ATOM
      1 C1          1.2810    3.5420    6.2420 c3        1 MOL     -0.232832
      2 C2          0.9690    3.1960    4.7410 c         1 MOL      0.627458
      3 O1          1.9010    2.8420    3.9450 o         1 MOL     -0.567817
      4 H1          0.5340    4.2430    6.6160 hc        1 MOL      0.065712
      5 H2          1.2530    2.6300    6.8390 hc        1 MOL      0.065712
      6 H3          2.2710    3.9930    6.3140 hc        1 MOL      0.065712
      7 N1         -0.3520    3.2200    4.3380 n         1 MOL     -0.580354
      8 C3         -0.8010    2.9110    2.9450 c3        1 MOL      0.053883
      9 C4         -0.7080    4.0910    1.9470 c         1 MOL      0.625946
     10 O2         -1.1710    5.2020    2.1440 o         1 MOL     -0.585738
     11 C5         -2.2420    2.3470    3.0230 c3        1 MOL     -0.364589
     12 C6         -2.7610    1.7660    1.6880 c         1 MOL      0.875562
     13 O3         -3.9300    1.3740    1.6200 o         1 MOL     -0.753341
     14 O4         -2.0040    1.6030    0.7220 o         1 MOL     -0.753341
     15 H4         -1.1020    3.3670    4.9960 hn        1 MOL      0.335510
     16 H5         -0.1970    2.0850    2.5770 h1        1 MOL      0.064406
     17 H6         -2.9330    3.1230    3.3430 hc        1 MOL      0.108812
     18 H7         -2.1970    1.5070    3.7150 hc        1 MOL      0.108812
     19 N2         -0.0640    3.9050    0.7730 n         1 MOL     -0.435874
     20 C7          0.2250    4.8820   -0.3330 c3        1 MOL      0.021436
     21 C8         -0.9340    5.2270   -1.2740 c         1 MOL      0.578961
     22 O5         -0.8980    6.2200   -2.0030 o         1 MOL     -0.563000
     23 C9          1.5400    4.4400   -1.0380 c3        1 MOL      0.089014
     24 C10         2.3060    5.5540   -1.8120 c3        1 MOL     -0.009304
     25 C11         2.8250    6.8310   -1.1520 c3        1 MOL     -0.107598
     26 C12         3.5710    6.5110    0.1340 c3        1 MOL      0.155992
     27 N3          3.8090    7.6660    1.0060 n4        1 MOL     -0.388374
     28 H8          0.3140    2.9800    0.6400 hn        1 MOL      0.225399
     29 H9          0.3730    5.8570    0.1420 h1        1 MOL      0.045806
     30 H10         1.2610    3.6840   -1.7720 hc        1 MOL      0.020205
     31 H11         2.2350    3.9380   -0.3650 hc        1 MOL      0.020205
     32 H12         1.7200    5.8040   -2.6910 hc        1 MOL      0.018224
     33 H13         3.1650    4.9820   -2.1720 hc        1 MOL      0.018224
     34 H14         1.9900    7.5150   -0.9960 hc        1 MOL      0.036592
     35 H15         3.6260    7.2370   -1.7720 hc        1 MOL      0.036592
     36 H16         4.4990    5.9800   -0.0720 hx        1 MOL      0.068391
     37 H17         2.9590    5.7940    0.7000 hx        1 MOL      0.068391
     38 H18         2.9640    8.1380    1.2990 hn        1 MOL      0.326872
     39 H19         4.3350    7.4240    1.8210 hn        1 MOL      0.326872
     40 H20         4.2490    8.4600    0.5500 hn        1 MOL      0.326872
     41 N4         -2.0570    4.4720   -1.1940 n         1 MOL     -0.434738
     42 C13        -3.2040    4.7050   -2.0700 c3        1 MOL      0.029426
     43 C14        -4.5900    4.4070   -1.4520 c         1 MOL      0.420812
     44 O6         -5.6260    4.9000   -1.9290 o         1 MOL     -0.539318
     45 C15        -3.1110    3.9870   -3.4750 c3        1 MOL     -0.166313
     46 C16        -2.6870    2.5660   -3.3720 c         1 MOL      0.796902
     47 O7         -2.7100    1.9190   -4.4080 o         1 MOL     -0.755397
     48 O8         -2.3360    2.0510   -2.3150 o         1 MOL     -0.755397
     49 H21        -2.0460    3.6520   -0.6050 hn        1 MOL      0.234629
     50 H22        -3.2310    5.7520   -2.3750 h1        1 MOL      0.094454
     51 H23        -2.3580    4.4670   -4.1040 hc        1 MOL      0.065108
     52 H24        -4.1170    4.1660   -3.8550 hc        1 MOL      0.065108
     53 N5         -4.6570    3.6680   -0.3800 n         1 MOL     -0.179852
     54 C17        -5.8670    3.5370    0.3490 c3        1 MOL     -0.133105
     55 C18        -6.6230    2.2670   -0.1330 c         1 MOL      0.436367
     56 O9         -7.7850    2.0750    0.3070 o         1 MOL     -0.527363
     57 H25        -3.8560    3.1410   -0.0530 hn        1 MOL      0.186156
     58 H26        -6.5230    4.3800    0.1470 h1        1 MOL      0.109089
     59 H27        -5.6590    3.5970    1.4180 h1        1 MOL      0.109089
     60 N6         -5.8750    1.4200   -0.8900 n         1 MOL     -0.150725
     61 C19        -6.4290    0.1830   -1.3800 c3        1 MOL     -0.057260
     62 C20        -6.5000   -0.9300   -0.2610 c         1 MOL      0.264317
     63 O10        -7.1680   -1.9390   -0.5510 o         1 MOL     -0.469612
     64 C21        -5.7510   -0.2340   -2.7100 c3        1 MOL     -0.324077
     65 C22        -4.4420   -0.9590   -2.4600 c         1 MOL      0.719958
     66 N7         -4.2120   -1.8870   -3.3010 n         1 MOL     -0.709418
     67 O11        -3.6050   -0.7000   -1.6010 o         1 MOL     -0.567359
     68 H28        -4.8950    1.5470   -1.0760 hn        1 MOL      0.142140
     69 H29        -7.4750    0.3970   -1.6190 h1        1 MOL      0.127315
     70 H30        -5.5450    0.6900   -3.2610 hc        1 MOL      0.132199
     71 H31        -6.4400   -0.8930   -3.2220 hc        1 MOL      0.132199
     72 H32        -4.8200   -2.0280   -4.0840 hn        1 MOL      0.347346
     73 H33        -3.3140   -2.3420   -3.2170 hn        1 MOL      0.347346
     74 N8         -5.8750   -0.7520    0.8620 n         1 MOL      0.016573
     75 C23        -5.9730   -1.6710    2.0560 c3        1 MOL     -0.364566
     76 C24        -4.8940   -2.7370    2.1030 c         1 MOL      0.705237
     77 O12        -4.9500   -3.6790    2.9090 o         1 MOL     -0.571610
     78 H34        -5.2600    0.0420    0.9610 hn        1 MOL      0.210045
     79 H35        -6.9700   -2.1000    2.0760 h1        1 MOL      0.146929
     80 H36        -5.7310   -1.1530    2.9820 h1        1 MOL      0.146929
     81 N9         -3.8260   -2.5320    1.2670 n         1 MOL     -0.449089
     82 C25        -2.6530   -3.4390    1.3080 c3        1 MOL      0.240775
     83 C26        -1.3250   -2.6920    1.2890 c         1 MOL      0.565974
     84 O13        -1.2380   -1.6620    0.6460 o         1 MOL     -0.644006
     85 C27        -2.6300   -4.4220    0.0700 c3        1 MOL      0.015884
     86 C28        -3.8810   -5.2310    0.0440 ca        1 MOL      0.079221
     87 C29        -4.9360   -4.9710   -0.8530 ca        1 MOL     -0.196189
     88 C30        -3.8790   -6.4430    0.7680 ca        1 MOL     -0.196189
     89 C31        -6.0980   -5.7370   -0.8880 ca        1 MOL     -0.289601
     90 C32        -4.9780   -7.3170    0.6770 ca        1 MOL     -0.289601
     91 C33        -6.0790   -6.9190   -0.1650 ca        1 MOL      0.385521
     92 O14        -7.2110   -7.6490   -0.2190 oh        1 MOL     -0.483189
     93 H37        -3.8300   -1.7290    0.6520 hn        1 MOL      0.193736
     94 H38        -2.5880   -4.0120    2.2280 h1        1 MOL     -0.008349
     95 H39        -1.8390   -5.1550    0.2430 hc        1 MOL     -0.009907
     96 H40        -2.4560   -3.9620   -0.9090 hc        1 MOL     -0.009907
     97 H41        -4.8760   -4.0970   -1.4710 ha        1 MOL      0.133613
     98 H42        -3.0450   -6.6390    1.4280 ha        1 MOL      0.133613
     99 H43        -6.9430   -5.3960   -1.4710 ha        1 MOL      0.168032
    100 H44        -5.0660   -8.1160    1.4040 ha        1 MOL      0.168032
    101 H45        -7.1730   -8.4980    0.2340 ho        1 MOL      0.352229
    102 N10        -0.3010   -3.1870    1.9960 n         1 MOL     -0.670361
    103 C34         1.0560   -2.7080    1.9330 c3        1 MOL      0.048665
    104 C35         1.9770   -3.6840    1.1500 c         1 MOL      0.591829
    105 O15         2.0920   -4.8470    1.4990 o         1 MOL     -0.559166
    106 C36         1.4370   -2.2220    3.3590 c3        1 MOL      0.067184
    107 C37         0.5240   -0.9590    3.6780 c3        1 MOL      0.193900
    108 C38         2.9200   -1.9400    3.4570 c3        1 MOL     -0.247508
    109 C39         0.8160   -0.2640    5.0080 c3        1 MOL     -0.069550
    110 H46        -0.5210   -4.0960    2.3910 hn        1 MOL      0.354384
    111 H47         1.0520   -1.8120    1.3150 h1        1 MOL      0.083115
    112 H48         1.2080   -3.0140    4.0660 hc        1 MOL      0.023402
    113 H49        -0.5090   -1.2810    3.8310 hc        1 MOL     -0.024172
    114 H50         0.6110   -0.2520    2.8520 hc        1 MOL     -0.024172
    115 H51         3.1560   -1.0460    2.8710 hc        1 MOL      0.044057
    116 H52         3.0900   -1.6920    4.5060 hc        1 MOL      0.044057
    117 H53         3.5490   -2.7860    3.1910 hc        1 MOL      0.044057
    118 H54         1.7950    0.2080    4.9440 hc        1 MOL      0.013162
    119 H55         0.0510    0.4870    5.1850 hc        1 MOL      0.013162
    120 H56         0.6690   -0.9640    5.8210 hc        1 MOL      0.013162
    121 N11         2.6000   -3.0920    0.1500 n         1 MOL     -0.355200
    122 C40         3.5530   -3.7750   -0.7150 c3        1 MOL     -0.062688
    123 C41         5.0500   -3.5070   -0.3960 c         1 MOL      0.568757
    124 O16         5.4640   -2.5090    0.1710 o         1 MOL     -0.525573
    125 C42         3.3980   -3.2830   -2.1590 c3        1 MOL     -0.162120
    126 O17         3.7020   -1.8720   -2.1560 oh        1 MOL     -0.483725
    127 H57         2.5250   -2.0970    0.0300 hn        1 MOL      0.426346
    128 H58         3.4810   -4.8590   -0.7440 h1        1 MOL      0.072497
    129 H59         2.3710   -3.4030   -2.5110 h1        1 MOL      0.116777
    130 H60         4.1590   -3.7800   -2.7620 h1        1 MOL      0.116777
    131 H61         2.9360   -1.4770   -1.7380 ho        1 MOL      0.363605
    132 N12         5.9730   -4.3390   -0.8310 n         1 MOL     -0.487646
    133 C43         7.4520   -4.2410   -0.5340 c3        1 MOL      0.100162
    134 C44         8.1140   -3.0020   -1.1540 c         1 MOL      0.435133
    135 O18         9.1240   -2.5030   -0.6130 o         1 MOL     -0.508609
    136 C45         8.1040   -5.5630   -1.0130 c3        1 MOL     -0.308881
    137 H62         5.6980   -5.1370   -1.3930 hn        1 MOL      0.292731
    138 H63         7.6870   -4.2010    0.5210 h1        1 MOL      0.117173
    139 H64         7.7390   -6.4310   -0.4700 hc        1 MOL      0.098143
    140 H65         7.7880   -5.5440   -2.0540 hc        1 MOL      0.098143
    141 H66         9.1770   -5.6540   -0.8390 hc        1 MOL      0.098143
    142 N13         7.4400   -2.3990   -2.1160 n         1 MOL     -0.337413
    143 C46         7.8260   -1.1190   -2.6480 c3        1 MOL      0.066110
    144 C47         7.5070   -0.0700   -1.6270 c         1 MOL      0.410430
    145 O19         8.3490    0.5960   -1.0570 o         1 MOL     -0.486729
    146 C48         7.2300   -0.9430   -4.0490 c3        1 MOL     -0.250212
    147 H67         6.6250   -2.8230   -2.5400 hn        1 MOL      0.286751
    148 H68         8.9040   -1.1730   -2.7520 h1        1 MOL      0.092372
    149 H69         7.5650   -0.0050   -4.4750 hc        1 MOL      0.073158
    150 H70         7.5310   -1.7250   -4.7550 hc        1 MOL      0.073158
    151 H71         6.1370   -0.8940   -3.9760 hc        1 MOL      0.073158
    152 N14         6.1490    0.0860   -1.3480 n         1 MOL     -0.124809
    153 C49         5.5710    1.2550   -0.6650 c3        1 MOL     -0.277466
    154 C50         5.9410    1.2050    0.8310 c         1 MOL      0.482297
    155 O20         5.9580    2.2260    1.4860 o         1 MOL     -0.595692
    156 C51         4.0610    1.4110   -0.7850 c3        1 MOL      0.040457
    157 C52         3.2110    0.7730    0.3130 c3        1 MOL     -0.036389
    158 C53         1.8120    0.5900   -0.2640 c         1 MOL      0.714399
    159 O21         1.4670   -0.4400   -0.8510 o         1 MOL     -0.760243
    160 O22         1.0110    1.5470   -0.2450 o         1 MOL     -0.760243
    161 H72         5.5350   -0.6080   -1.7410 hn        1 MOL      0.135242
    162 H73         5.9800    2.2040   -0.9980 h1        1 MOL      0.158422
    163 H74         3.6880    0.9460   -1.7060 hc        1 MOL      0.000580
    164 H75         3.7860    2.4510   -0.9640 hc        1 MOL      0.000580
    165 H76         3.1490    1.3880    1.2130 hc        1 MOL      0.025231
    166 H77         3.6190   -0.2090    0.5620 hc        1 MOL      0.025231
    167 N15         6.3440    0.1250    1.4520 n         1 MOL      0.001598
    168 C54         6.9020   -0.0890    2.8060 c3        1 MOL     -0.536742
    169 H78         6.3570    0.5230    3.5240 h1        1 MOL      0.181866
    170 H79         6.8050   -1.1400    3.0780 h1        1 MOL      0.181866
    171 H80         7.9550    0.1930    2.8150 h1        1 MOL      0.181866
    172 H81         6.3100   -0.7080    0.8820 hn        1 MOL      0.181011
    173 Ca1        -0.9970    0.1240   -1.2280 Ca        1 MOL      1.764830
    174 O23        -0.7150    0.2550   -4.0040 oh        1 MOL     -0.906714
    175 H82        -1.5270    0.7020   -4.2160 ho        1 MOL      0.425006
    176 H83        -0.0630    0.6390   -4.5780 ho        1 MOL      0.425006
    177 O24        -0.8130   -2.4310   -2.2240 oh        1 MOL     -0.906714
    178 H84        -1.3580   -2.6210   -2.9900 ho        1 MOL      0.425006
    179 H85        -0.1920   -3.1550   -2.1860 ho        1 MOL      0.425006
@<TRIPOS>BOND
     1    1    2 1   
     2    1    4 1   
     3    1    5 1   
     4    1    6 1   
     5    2    3 2   
     6    2    7 1   
     7    7    8 1   
     8    7   15 1   
     9    8    9 1   
    10    8   11 1   
    11    8   16 1   
    12    9   10 2   
    13    9   19 1   
    14   11   12 1   
    15   11   17 1   
    16   11   18 1   
    17   12   13 1   
    18   12   14 1   
    19   19   20 1   
    20   19   28 1   
    21   20   21 1   
    22   20   23 1   
    23   20   29 1   
    24   21   22 2   
    25   21   41 1   
    26   23   24 1   
    27   23   30 1   
    28   23   31 1   
    29   24   25 1   
    30   24   32 1   
    31   24   33 1   
    32   25   26 1   
    33   25   34 1   
    34   25   35 1   
    35   26   27 1   
    36   26   36 1   
    37   26   37 1   
    38   27   38 1   
    39   27   39 1   
    40   27   40 1   
    41   41   42 1   
    42   41   49 1   
    43   42   43 1   
    44   42   45 1   
    45   42   50 1   
    46   43   44 2   
    47   43   53 1   
    48   45   46 1   
    49   45   51 1   
    50   45   52 1   
    51   46   47 1   
    52   46   48 1   
    53   53   54 1   
    54   53   57 1   
    55   54   55 1   
    56   54   58 1   
    57   54   59 1   
    58   55   56 2   
    59   55   60 1   
    60   60   61 1   
    61   60   68 1   
    62   61   62 1   
    63   61   64 1   
    64   61   69 1   
    65   62   63 2   
    66   62   74 1   
    67   64   65 1   
    68   64   70 1   
    69   64   71 1   
    70   65   66 1   
    71   65   67 2   
    72   66   72 1   
    73   66   73 1   
    74   74   75 1   
    75   74   78 1   
    76   75   76 1   
    77   75   79 1   
    78   75   80 1   
    79   76   77 2   
    80   76   81 1   
    81   81   82 1   
    82   81   93 1   
    83   82   83 1   
    84   82   85 1   
    85   82   94 1   
    86   83   84 2   
    87   83  102 1   
    88   85   86 1   
    89   85   95 1   
    90   85   96 1   
    91   86   87 ar  
    92   86   88 ar  
    93   87   89 ar  
    94   87   97 1   
    95   88   90 ar  
    96   88   98 1   
    97   89   91 ar  
    98   89   99 1   
    99   90   91 ar  
   100   90  100 1   
   101   91   92 1   
   102   92  101 1   
   103  102  103 1   
   104  102  110 1   
   105  103  104 1   
   106  103  106 1   
   107  103  111 1   
   108  104  105 2   
   109  104  121 1   
   110  106  107 1   
   111  106  108 1   
   112  106  112 1   
   113  107  109 1   
   114  107  113 1   
   115  107  114 1   
   116  108  115 1   
   117  108  116 1   
   118  108  117 1   
   119  109  118 1   
   120  109  119 1   
   121  109  120 1   
   122  121  122 1   
   123  121  127 1   
   124  122  123 1   
   125  122  125 1   
   126  122  128 1   
   127  123  124 2   
   128  123  132 1   
   129  125  126 1   
   130  125  129 1   
   131  125  130 1   
   132  126  131 1   
   133  132  133 1   
   134  132  137 1   
   135  133  134 1   
   136  133  136 1   
   137  133  138 1   
   138  134  135 2   
   139  134  142 1   
   140  136  139 1   
   141  136  140 1   
   142  136  141 1   
   143  142  143 1   
   144  142  147 1   
   145  143  144 1   
   146  143  146 1   
   147  143  148 1   
   148  144  145 2   
   149  144  152 1   
   150  146  149 1   
   151  146  150 1   
   152  146  151 1   
   153  152  153 1   
   154  152  161 1   
   155  153  154 1   
   156  153  156 1   
   157  153  162 1   
   158  154  155 2   
   159  154  167 1   
   160  156  157 1   
   161  156  163 1   
   162  156  164 1   
   163  157  158 1   
   164  157  165 1   
   165  157  166 1   
   166  158  159 1   
   167  158  160 1   
   168  167  168 1   
   169  167  172 1   
   170  168  169 1   
   171  168  170 1   
   172  168  171 1   
   173  174  175 1   
   174  174  176 1   
   175  177  178 1   
   176  177  179 1   
@<TRIPOS>SUBSTRUCTURE
     1 MOL         1 TEMP              0 ****  ****    0 ROOT
