@<TRIPOS>MOLECULE
MOL
  189   185     1     0     0
SMALL
resp


@<TRIPOS>ATOM
      1 C1         -0.8190    3.5960    5.1120 c3        1 MOL     -0.398102
      2 C2         -1.0930    2.5920    3.9700 c         1 MOL      0.722894
      3 O1         -0.1470    2.3990    3.2040 o         1 MOL     -0.540038
      4 H1         -0.0960    4.3390    4.7760 hc        1 MOL      0.100122
      5 H2         -1.7480    4.0940    5.3900 hc        1 MOL      0.100122
      6 H3         -0.4180    3.0650    5.9750 hc        1 MOL      0.100122
      7 N1         -2.1900    1.8430    3.7960 n         1 MOL     -0.582738
      8 C3         -2.6090    1.5490    2.4540 c3        1 MOL      0.091362
      9 C4         -3.0690    2.8280    1.8130 c         1 MOL      0.478204
     10 O2         -3.9060    3.5130    2.4200 o         1 MOL     -0.607178
     11 C5         -3.6890    0.4250    2.4790 c3        1 MOL     -0.198787
     12 C6         -4.2220    0.1330    1.0720 c         1 MOL      0.753996
     13 O3         -3.5890    0.2930    0.0130 o         1 MOL     -0.664414
     14 O4         -5.4130   -0.3090    1.0150 o         1 MOL     -0.664414
     15 H4         -2.9810    1.7770    4.4300 hn        1 MOL      0.332730
     16 H5         -1.7920    1.1160    1.8810 h1        1 MOL     -0.043492
     17 H6         -4.4740    0.7010    3.1940 hc        1 MOL      0.059157
     18 H7         -3.3450   -0.4840    2.9560 hc        1 MOL      0.059157
     19 N2         -2.4780    3.2590    0.7290 n         1 MOL     -0.081730
     20 C7         -2.7430    4.5630    0.1480 c3        1 MOL      0.067239
     21 C8         -3.5800    4.5750   -1.1410 c         1 MOL      0.276164
     22 O5         -4.4320    5.4580   -1.3400 o         1 MOL     -0.553040
     23 C9         -1.3400    5.1560   -0.2410 c3        1 MOL     -0.297222
     24 C10        -0.3680    5.1660    0.9200 c3        1 MOL      0.048415
     25 C11        -0.8400    6.0150    2.0950 c3        1 MOL     -0.138408
     26 C12        -1.2500    7.4300    1.7390 c3        1 MOL     -0.112221
     27 N3         -2.1930    8.0080    2.6840 n4        1 MOL     -0.215104
     28 H8         -1.7580    2.6930    0.3060 hn        1 MOL      0.260628
     29 H9         -3.2470    5.3070    0.7660 h1        1 MOL      0.070126
     30 H10        -1.6050    6.1450   -0.6130 hc        1 MOL      0.084506
     31 H11        -0.9210    4.5790   -1.0590 hc        1 MOL      0.084506
     32 H12         0.5820    5.5960    0.5990 hc        1 MOL      0.060134
     33 H13        -0.1280    4.1450    1.2150 hc        1 MOL      0.060134
     34 H14        -0.0480    6.0690    2.8430 hc        1 MOL      0.050586
     35 H15        -1.6610    5.4230    2.5040 hc        1 MOL      0.050586
     36 H16        -1.6730    7.4060    0.7400 hx        1 MOL      0.122098
     37 H17        -0.2530    7.8870    1.7250 hx        1 MOL      0.122098
     38 H18        -2.3730    8.9680    2.4380 hn        1 MOL      0.300702
     39 H19        -3.0490    7.4780    2.7730 hn        1 MOL      0.300702
     40 H20        -1.8040    8.0310    3.6150 hn        1 MOL      0.300702
     41 N4         -3.4700    3.5760   -2.0220 n         1 MOL     -0.012116
     42 C13        -4.2180    3.4760   -3.2620 c3        1 MOL     -0.030488
     43 C14        -5.4900    2.6130   -3.0630 c         1 MOL      0.415775
     44 O6         -6.2810    2.5440   -3.9820 o         1 MOL     -0.521841
     45 C15        -3.2190    3.0020   -4.3540 c3        1 MOL     -0.059551
     46 C16        -2.3760    1.7010   -4.0440 c         1 MOL      0.752171
     47 O7         -2.6400    0.9870   -3.0400 o         1 MOL     -0.702867
     48 O8         -1.5540    1.3580   -4.9690 o         1 MOL     -0.702867
     49 H21        -2.7600    2.8980   -1.7810 hn        1 MOL      0.015275
     50 H22        -4.5600    4.4700   -3.5610 h1        1 MOL      0.087750
     51 H23        -2.5190    3.8140   -4.5420 hc        1 MOL      0.009688
     52 H24        -3.7310    2.9120   -5.3070 hc        1 MOL      0.009688
     53 N5         -5.6160    1.9580   -1.9380 n         1 MOL     -0.007503
     54 C17        -6.9250    1.3190   -1.6430 c3        1 MOL     -0.373417
     55 C18        -7.1910   -0.0880   -2.1730 c         1 MOL      0.714948
     56 O9         -8.0050   -0.2960   -3.0470 o         1 MOL     -0.559647
     57 H25        -4.8520    1.9010   -1.2750 hn        1 MOL      0.086843
     58 H26        -7.7100    2.0060   -1.9700 h1        1 MOL      0.118179
     59 H27        -7.0040    1.2110   -0.5640 h1        1 MOL      0.118179
     60 N6         -6.4540   -1.0780   -1.5850 n         1 MOL     -0.457259
     61 C19        -6.5330   -2.5070   -1.9540 c3        1 MOL      0.209595
     62 C20        -6.6770   -3.3770   -0.6720 c         1 MOL      0.254868
     63 O10        -6.9650   -4.5720   -0.7860 o         1 MOL     -0.525276
     64 C21        -5.3910   -2.9690   -2.8230 c3        1 MOL     -0.147069
     65 C22        -4.0380   -2.3920   -2.4180 c         1 MOL      0.608579
     66 O11        -3.6110   -2.5630   -1.2130 o         1 MOL     -0.639667
     67 O12        -3.2920   -1.8900   -3.2610 o         1 MOL     -0.639667
     68 H28        -5.8540   -0.8060   -0.8120 hn        1 MOL      0.189265
     69 H29        -7.4810   -2.5100   -2.4750 h1        1 MOL      0.038429
     70 H30        -5.7470   -2.7750   -3.8410 hc        1 MOL      0.053391
     71 H31        -5.3020   -4.0500   -2.7090 hc        1 MOL      0.053391
     72 N7         -6.3880   -2.8430    0.5010 n         1 MOL     -0.042527
     73 C23        -6.3700   -3.5410    1.7310 c3        1 MOL     -0.036939
     74 C24        -5.0040   -4.2620    1.8890 c         1 MOL      0.416696
     75 O13        -4.8870   -5.2250    2.6690 o         1 MOL     -0.561829
     76 H32        -6.1510   -1.8740    0.3640 hn        1 MOL      0.098632
     77 H33        -7.2620   -4.1710    1.7540 h1        1 MOL      0.057499
     78 H34        -6.5540   -2.7920    2.5020 h1        1 MOL      0.057499
     79 N8         -3.9740   -3.7230    1.2800 n         1 MOL     -0.028474
     80 C25        -2.6130   -4.2490    1.6030 c3        1 MOL     -0.216991
     81 C26        -1.5790   -3.1360    1.4900 c         1 MOL      0.521291
     82 O14        -1.7230   -2.0470    0.8780 o         1 MOL     -0.633621
     83 C27        -2.2600   -5.3190    0.6210 c3        1 MOL      0.414759
     84 C28        -3.0580   -6.6790    0.8280 c3        1 MOL     -0.465619
     85 O15        -2.5160   -4.9180   -0.7280 oh        1 MOL     -0.596114
     86 H35        -4.1070   -2.9140    0.6850 hn        1 MOL      0.088640
     87 H36        -2.6180   -4.4900    2.6610 h1        1 MOL      0.122736
     88 H37        -1.1950   -5.5440    0.6410 h1        1 MOL      0.002676
     89 H38        -2.9950   -4.0900   -0.6750 ho        1 MOL      0.391135
     90 H39        -2.7720   -7.4000    0.0610 hc        1 MOL      0.120387
     91 H40        -2.8100   -7.0700    1.8170 hc        1 MOL      0.120387
     92 H41        -4.1440   -6.6160    0.7130 hc        1 MOL      0.120387
     93 N9         -0.4310   -3.3760    2.1580 n         1 MOL     -0.459661
     94 C29         0.6580   -2.4230    2.4270 c3        1 MOL      0.042069
     95 C30         1.9250   -2.9460    1.7030 c         1 MOL      0.450759
     96 O16         2.5210   -3.8920    2.2280 o         1 MOL     -0.546976
     97 C31         0.8960   -2.1590    3.9600 c3        1 MOL      0.053587
     98 C32        -0.4670   -1.5470    4.5160 c3        1 MOL     -0.013811
     99 C33         2.0510   -1.1810    4.1250 c3        1 MOL     -0.094973
    100 C34        -0.1760   -1.1250    6.0020 c3        1 MOL     -0.269407
    101 H42        -0.3670   -4.2650    2.6380 hn        1 MOL      0.255937
    102 H43         0.3670   -1.4760    1.9660 h1        1 MOL      0.261504
    103 H44         1.1060   -3.0500    4.5530 hc        1 MOL      0.014426
    104 H45        -1.2820   -2.2700    4.5370 hc        1 MOL      0.043327
    105 H46        -0.6600   -0.6880    3.8730 hc        1 MOL      0.043327
    106 H47         1.8560   -0.3320    3.4720 hc        1 MOL      0.025417
    107 H48         2.2630   -0.9200    5.1590 hc        1 MOL      0.025417
    108 H49         2.9800   -1.6220    3.7970 hc        1 MOL      0.025417
    109 H50         0.1550   -1.9810    6.5880 hc        1 MOL      0.067199
    110 H51         0.5220   -0.2930    6.1550 hc        1 MOL      0.067199
    111 H52        -1.1240   -0.7920    6.4240 hc        1 MOL      0.067199
    112 N10         2.3980   -2.2200    0.6580 n         1 MOL     -0.190007
    113 C35         3.6780   -2.5250   -0.1520 c3        1 MOL     -0.025819
    114 C36         4.9390   -2.0600    0.4710 c         1 MOL      0.282907
    115 O17         4.8910   -1.0670    1.2090 o         1 MOL     -0.224912
    116 C37         3.6920   -1.9960   -1.6090 c3        1 MOL      0.031268
    117 C38         2.4610   -2.5180   -2.4030 c3        1 MOL     -0.416647
    118 O18         3.6140   -0.5700   -1.5520 oh        1 MOL     -0.221424
    119 H53         1.9420   -1.3720    0.3690 hn        1 MOL      0.095509
    120 H54         3.7830   -3.5950   -0.3300 h1        1 MOL      0.098551
    121 H55         4.5750   -2.2710   -2.1790 h1        1 MOL      0.054681
    122 H56         3.2490   -0.3020   -2.4020 ho        1 MOL      0.312010
    123 H57         2.4110   -1.9820   -3.3460 hc        1 MOL      0.132156
    124 H58         2.5450   -3.5860   -2.5800 hc        1 MOL      0.132156
    125 H59         1.4900   -2.2920   -1.9470 hc        1 MOL      0.132156
    126 N11         6.0950   -2.6470    0.1560 n         1 MOL     -0.296651
    127 C39         7.4260   -1.9530    0.4390 c3        1 MOL     -0.130755
    128 C40         7.5440   -0.4830    0.1840 c         1 MOL      0.272557
    129 O19         7.9940    0.3160    1.0110 o         1 MOL     -0.457306
    130 C41         8.5720   -2.6840   -0.3530 c3        1 MOL      0.200104
    131 C42         8.7820   -4.0960    0.2030 c3        1 MOL     -0.512004
    132 O20         8.1670   -2.8670   -1.6800 oh        1 MOL     -0.632609
    133 H60         6.1340   -3.4080   -0.5080 hn        1 MOL      0.266574
    134 H61         7.5660   -2.0980    1.5070 h1        1 MOL      0.168722
    135 H62         9.5030   -2.1140   -0.3570 h1        1 MOL      0.096873
    136 H63         8.5550   -3.7080   -1.9490 ho        1 MOL      0.416083
    137 H64         9.0500   -3.9960    1.2490 hc        1 MOL      0.154895
    138 H65         7.8800   -4.7060    0.2260 hc        1 MOL      0.154895
    139 H66         9.6220   -4.5390   -0.3200 hc        1 MOL      0.154895
    140 N12         6.9010   -0.0020   -0.9470 n         1 MOL     -0.083043
    141 C43         6.7400    1.4490   -1.1570 c3        1 MOL      0.020745
    142 C44         5.9490    2.2350   -0.1140 c         1 MOL      0.340413
    143 O21         6.3200    3.3890    0.0870 o         1 MOL     -0.512595
    144 C45         6.2560    1.6860   -2.5500 c3        1 MOL     -0.377569
    145 C46         6.8600    0.9720   -3.7750 c3        1 MOL      0.070869
    146 C47         8.4110    1.0870   -3.8990 c3        1 MOL     -0.055136
    147 C48         8.6610    0.4900   -5.2590 c3        1 MOL      0.095245
    148 N13        10.0550    0.3170   -5.5070 n4        1 MOL     -0.483382
    149 H67         6.4480   -0.7420   -1.4650 hn        1 MOL      0.196930
    150 H68         7.7380    1.8770   -1.1300 h1        1 MOL      0.071543
    151 H69         6.4670    2.7470   -2.6790 hc        1 MOL      0.139318
    152 H70         5.1910    1.4680   -2.6690 hc        1 MOL      0.139318
    153 H71         6.4150    1.3410   -4.7030 hc        1 MOL     -0.018514
    154 H72         6.5850   -0.0640   -3.5530 hc        1 MOL     -0.018514
    155 H73         8.8940    0.5330   -3.0880 hc        1 MOL      0.056092
    156 H74         8.7050    2.1370   -3.9520 hc        1 MOL      0.056092
    157 H75         8.1120    1.0780   -5.9970 hx        1 MOL      0.085136
    158 H76         8.1800   -0.4780   -5.3890 hx        1 MOL      0.085136
    159 H77        10.1840   -0.3690   -6.2480 hn        1 MOL      0.358180
    160 H78        10.4290    1.1960   -5.8400 hn        1 MOL      0.358180
    161 H79        10.5310    0.0640   -4.6540 hn        1 MOL      0.358180
    162 N14         4.9160    1.6350    0.4660 n         1 MOL      0.046446
    163 C49         4.0570    2.2810    1.4360 c3        1 MOL     -0.211681
    164 C50         4.5390    2.0130    2.8200 c         1 MOL      0.546975
    165 O22         4.3120    2.8350    3.6920 o         1 MOL     -0.559408
    166 C51         2.6740    1.6420    1.2840 c3        1 MOL      0.197132
    167 C52         1.8550    1.9230   -0.0330 c3        1 MOL     -0.042361
    168 C53         0.5220    1.0990   -0.2720 c         1 MOL      0.627732
    169 O23         0.4360   -0.1300    0.0650 o         1 MOL     -0.671282
    170 O24        -0.3980    1.6560   -0.8100 o         1 MOL     -0.671282
    171 H80         4.6470    0.7230    0.1230 hn        1 MOL     -0.017745
    172 H81         3.9560    3.3610    1.2930 h1        1 MOL      0.101719
    173 H82         2.0550    1.8570    2.1520 hc        1 MOL     -0.030971
    174 H83         2.7970    0.5570    1.2860 hc        1 MOL     -0.030971
    175 H84         2.5290    1.8070   -0.8760 hc        1 MOL     -0.055558
    176 H85         1.5050    2.9480    0.0690 hc        1 MOL     -0.055558
    177 N15         5.2500    0.8830    2.9920 n         1 MOL     -0.216556
    178 C54         5.7180    0.4660    4.3810 c3        1 MOL     -0.318844
    179 H86         6.6060    1.0360    4.6520 h1        1 MOL      0.120928
    180 H87         4.9270    0.6610    5.1060 h1        1 MOL      0.120928
    181 H88         5.9550   -0.5980    4.3810 h1        1 MOL      0.120928
    182 H89         5.4490    0.2740    2.2070 hn        1 MOL      0.183049
    183 Ca1        -1.6330   -0.6730   -1.4360 Ca        1 MOL      1.749221
    184 O25         0.0460   -0.2670   -3.5480 oh        1 MOL     -0.911907
    185 H90        -0.5190    0.0730   -4.2380 ho        1 MOL      0.408459
    186 H91         0.9410   -0.0440   -3.8310 ho        1 MOL      0.408459
    187 O26        -0.7460   -3.1500   -1.6080 oh        1 MOL     -0.911907
    188 H92        -1.5480   -3.6590   -1.4630 ho        1 MOL      0.408459
    189 H93        -0.2130   -3.7030   -2.1720 ho        1 MOL      0.408459
@<TRIPOS>BOND
     1    1    2 1   
     2    1    4 1   
     3    1    5 1   
     4    1    6 1   
     5    2    3 2   
     6    2    7 1   
     7    7    8 1   
     8    7   15 1   
     9    8    9 1   
    10    8   11 1   
    11    8   16 1   
    12    9   10 2   
    13    9   19 1   
    14   11   12 1   
    15   11   17 1   
    16   11   18 1   
    17   12   13 1   
    18   12   14 1   
    19   19   20 1   
    20   19   28 1   
    21   20   21 1   
    22   20   23 1   
    23   20   29 1   
    24   21   22 2   
    25   21   41 1   
    26   23   24 1   
    27   23   30 1   
    28   23   31 1   
    29   24   25 1   
    30   24   32 1   
    31   24   33 1   
    32   25   26 1   
    33   25   34 1   
    34   25   35 1   
    35   26   27 1   
    36   26   36 1   
    37   26   37 1   
    38   27   38 1   
    39   27   39 1   
    40   27   40 1   
    41   41   42 1   
    42   41   49 1   
    43   42   43 1   
    44   42   45 1   
    45   42   50 1   
    46   43   44 2   
    47   43   53 1   
    48   45   46 1   
    49   45   51 1   
    50   45   52 1   
    51   46   47 1   
    52   46   48 1   
    53   53   54 1   
    54   53   57 1   
    55   54   55 1   
    56   54   58 1   
    57   54   59 1   
    58   55   56 2   
    59   55   60 1   
    60   60   61 1   
    61   60   68 1   
    62   61   62 1   
    63   61   64 1   
    64   61   69 1   
    65   62   63 2   
    66   62   72 1   
    67   64   65 1   
    68   64   70 1   
    69   64   71 1   
    70   65   66 1   
    71   65   67 1   
    72   72   73 1   
    73   72   76 1   
    74   73   74 1   
    75   73   77 1   
    76   73   78 1   
    77   74   75 2   
    78   74   79 1   
    79   79   80 1   
    80   79   86 1   
    81   80   81 1   
    82   80   83 1   
    83   80   87 1   
    84   81   82 2   
    85   81   93 1   
    86   83   84 1   
    87   83   85 1   
    88   83   88 1   
    89   84   90 1   
    90   84   91 1   
    91   84   92 1   
    92   85   89 1   
    93   93   94 1   
    94   93  101 1   
    95   94   95 1   
    96   94   97 1   
    97   94  102 1   
    98   95   96 2   
    99   95  112 1   
   100   97   98 1   
   101   97   99 1   
   102   97  103 1   
   103   98  100 1   
   104   98  104 1   
   105   98  105 1   
   106   99  106 1   
   107   99  107 1   
   108   99  108 1   
   109  100  109 1   
   110  100  110 1   
   111  100  111 1   
   112  112  113 1   
   113  112  119 1   
   114  113  114 1   
   115  113  116 1   
   116  113  120 1   
   117  114  115 2   
   118  114  126 1   
   119  116  117 1   
   120  116  118 1   
   121  116  121 1   
   122  117  123 1   
   123  117  124 1   
   124  117  125 1   
   125  118  122 1   
   126  126  127 1   
   127  126  133 1   
   128  127  128 1   
   129  127  130 1   
   130  127  134 1   
   131  128  129 2   
   132  128  140 1   
   133  130  131 1   
   134  130  132 1   
   135  130  135 1   
   136  131  137 1   
   137  131  138 1   
   138  131  139 1   
   139  132  136 1   
   140  140  141 1   
   141  140  149 1   
   142  141  142 1   
   143  141  144 1   
   144  141  150 1   
   145  142  143 2   
   146  142  162 1   
   147  144  145 1   
   148  144  151 1   
   149  144  152 1   
   150  145  146 1   
   151  145  153 1   
   152  145  154 1   
   153  146  147 1   
   154  146  155 1   
   155  146  156 1   
   156  147  148 1   
   157  147  157 1   
   158  147  158 1   
   159  148  159 1   
   160  148  160 1   
   161  148  161 1   
   162  162  163 1   
   163  162  171 1   
   164  163  164 1   
   165  163  166 1   
   166  163  172 1   
   167  164  165 2   
   168  164  177 1   
   169  166  167 1   
   170  166  173 1   
   171  166  174 1   
   172  167  168 1   
   173  167  175 1   
   174  167  176 1   
   175  168  169 1   
   176  168  170 1   
   177  177  178 1   
   178  177  182 1   
   179  178  179 1   
   180  178  180 1   
   181  178  181 1   
   182  184  185 1   
   183  184  186 1   
   184  187  188 1   
   185  187  189 1   
@<TRIPOS>SUBSTRUCTURE
     1 MOL         1 TEMP              0 ****  ****    0 ROOT
