@<TRIPOS>MOLECULE
MOL
  189   185     1     0     0
SMALL
resp


@<TRIPOS>ATOM
      1 C1         -0.9880    2.4870    6.2830 c3        1 MOL     -0.668033
      2 C2         -1.0360    2.4220    4.7770 c         1 MOL      0.693444
      3 O1         -0.6800    1.4390    4.1750 o         1 MOL     -0.521914
      4 H1         -1.8500    3.0430    6.6500 hc        1 MOL      0.172527
      5 H2         -1.0070    1.4760    6.6910 hc        1 MOL      0.172527
      6 H3         -0.0730    2.9880    6.5970 hc        1 MOL      0.172527
      7 N1         -1.4780    3.4530    4.1440 n         1 MOL     -0.573661
      8 C3         -1.9730    3.5200    2.7460 c3        1 MOL      0.192961
      9 C4         -1.5820    4.7640    1.9330 c         1 MOL      0.380497
     10 O2         -1.5790    5.8590    2.4780 o         1 MOL     -0.556987
     11 C5         -3.5370    3.3300    2.6960 c3        1 MOL     -0.199694
     12 C6         -3.9340    3.1500    1.2770 c         1 MOL      0.604198
     13 O3         -3.2950    2.3740    0.5530 o         1 MOL     -0.640307
     14 O4         -5.1020    3.4650    0.9600 o         1 MOL     -0.640307
     15 H4         -1.6780    4.2160    4.7840 hn        1 MOL      0.308100
     16 H5         -1.6110    2.6370    2.2150 h1        1 MOL      0.073672
     17 H6         -3.8570    4.2640    3.1370 hc        1 MOL      0.044876
     18 H7         -3.8600    2.5690    3.4080 hc        1 MOL      0.044876
     19 N2         -1.3980    4.5090    0.6280 n         1 MOL      0.084995
     20 C7         -1.3940    5.5090   -0.4160 c3        1 MOL     -0.185510
     21 C8         -2.1970    5.1780   -1.6960 c         1 MOL      0.446626
     22 O5         -2.4420    6.0190   -2.5520 o         1 MOL     -0.577948
     23 C9          0.0900    5.8620   -0.8280 c3        1 MOL      0.144856
     24 C10         0.6460    4.7320   -1.6730 c3        1 MOL     -0.173943
     25 C11         1.0860    6.1450    0.3820 c3        1 MOL     -0.153007
     26 C12         2.0530    4.9790   -2.1970 c3        1 MOL     -0.278645
     27 H8         -1.2060    3.5390    0.4280 hn        1 MOL     -0.026542
     28 H9         -1.8610    6.4160   -0.0430 h1        1 MOL      0.105231
     29 H10         0.0900    6.8080   -1.3770 hc        1 MOL      0.007465
     30 H11         0.0560    4.5450   -2.5600 hc        1 MOL      0.106168
     31 H12         0.7530    3.7950   -1.1120 hc        1 MOL      0.106168
     32 H13         1.3540    5.2030    0.8660 hc        1 MOL      0.025908
     33 H14         2.0390    6.4770   -0.0480 hc        1 MOL      0.025908
     34 H15         0.7100    6.9370    1.0330 hc        1 MOL      0.025908
     35 H16         2.2190    5.8950   -2.7690 hc        1 MOL      0.089751
     36 H17         2.7810    4.9210   -1.3830 hc        1 MOL      0.089751
     37 H18         2.3850    4.1620   -2.8450 hc        1 MOL      0.089751
     38 N3         -2.7300    3.9560   -1.8620 n         1 MOL     -0.211505
     39 C13        -3.3670    3.5110   -3.0840 c3        1 MOL      0.102597
     40 C14        -4.7580    2.8730   -2.9320 c         1 MOL      0.297288
     41 O6         -5.3830    2.6000   -3.9900 o         1 MOL     -0.551112
     42 C15        -2.3980    2.6290   -3.9060 c3        1 MOL     -0.194499
     43 C16        -2.1030    1.2900   -3.2660 c         1 MOL      0.808129
     44 O7         -2.6320    0.8790   -2.2100 o         1 MOL     -0.715420
     45 O8         -1.2830    0.5080   -3.8700 o         1 MOL     -0.715420
     46 H19        -2.6660    3.2900   -1.0980 hn        1 MOL      0.145037
     47 H20        -3.6020    4.3810   -3.7030 h1        1 MOL      0.086690
     48 H21        -1.4310    3.1200   -3.9670 hc        1 MOL      0.041823
     49 H22        -2.8190    2.4240   -4.8840 hc        1 MOL      0.041823
     50 N4         -5.2710    2.6720   -1.7120 n         1 MOL     -0.004042
     51 C17        -6.6980    2.2780   -1.4900 c3        1 MOL     -0.335206
     52 C18        -7.1160    0.8280   -1.8700 c         1 MOL      0.587701
     53 O9         -8.2740    0.4180   -1.8030 o         1 MOL     -0.650007
     54 H23        -4.6850    2.9400   -0.9470 hn        1 MOL      0.089171
     55 H24        -7.3670    2.8870   -2.0940 h1        1 MOL      0.127986
     56 H25        -6.9120    2.3500   -0.4250 h1        1 MOL      0.127986
     57 N5         -6.1730    0.0040   -2.2170 n         1 MOL     -0.222037
     58 C19        -6.4210   -1.3530   -2.7090 c3        1 MOL     -0.104467
     59 C20        -6.8150   -2.2990   -1.5070 c         1 MOL      0.433000
     60 O10        -6.9600   -3.4760   -1.7720 o         1 MOL     -0.515998
     61 C21        -5.1400   -1.9140   -3.2980 c3        1 MOL     -0.191251
     62 C22        -3.9130   -2.0220   -2.3700 c         1 MOL      0.632485
     63 O11        -3.9140   -1.4890   -1.2170 o         1 MOL     -0.656223
     64 O12        -2.8650   -2.5380   -2.8380 o         1 MOL     -0.656223
     65 H26        -5.2380    0.3080   -1.9890 hn        1 MOL      0.201462
     66 H27        -7.2230   -1.3450   -3.4530 h1        1 MOL      0.136327
     67 H28        -4.8230   -1.2670   -4.1150 hc        1 MOL      0.077508
     68 H29        -5.3090   -2.8450   -3.8340 hc        1 MOL      0.077508
     69 N6         -6.9820   -1.8760   -0.2170 n         1 MOL     -0.156251
     70 C23        -7.4600   -2.7290    0.9080 c3        1 MOL     -0.328949
     71 C24        -6.4330   -3.7660    1.4360 c         1 MOL      0.585421
     72 O13        -6.9370   -4.7340    2.1010 o         1 MOL     -0.579110
     73 H30        -6.8260   -0.9070    0.0080 hn        1 MOL      0.220719
     74 H31        -8.3470   -3.2810    0.6080 h1        1 MOL      0.125695
     75 H32        -7.8080   -2.0730    1.7070 h1        1 MOL      0.125695
     76 N7         -5.1480   -3.5720    1.1790 n         1 MOL     -0.433831
     77 C25        -3.9860   -4.3540    1.6630 c3        1 MOL     -0.025976
     78 C26        -2.7490   -3.4450    1.7800 c         1 MOL      0.687561
     79 O14        -2.8170   -2.3720    1.1540 o         1 MOL     -0.752624
     80 C27        -3.7830   -5.5040    0.6510 c3        1 MOL     -0.431547
     81 C28        -3.4660   -4.9860   -0.7660 c3        1 MOL     -0.096048
     82 C29        -3.0430   -6.0370   -1.7740 c         1 MOL      0.617758
     83 N8         -2.6510   -5.5600   -2.9120 n         1 MOL     -0.744636
     84 O15        -3.0760   -7.2620   -1.5850 o         1 MOL     -0.615040
     85 H33        -4.8230   -2.8410    0.5730 hn        1 MOL      0.399265
     86 H34        -4.1550   -4.8620    2.6120 h1        1 MOL      0.048082
     87 H35        -4.7030   -6.0980    0.5890 hc        1 MOL      0.161987
     88 H36        -2.9460   -6.1200    0.9590 hc        1 MOL      0.161987
     89 H37        -2.6860   -4.2230   -0.6630 hc        1 MOL      0.118770
     90 H38        -4.3190   -4.4430   -1.1780 hc        1 MOL      0.118770
     91 H39        -2.7440   -4.5920   -3.1940 hn        1 MOL      0.336959
     92 H40        -2.2090   -6.1670   -3.5840 hn        1 MOL      0.336959
     93 N9         -1.6500   -3.7840    2.5280 n         1 MOL     -0.413505
     94 C30        -0.4880   -2.8990    2.7850 c3        1 MOL     -0.065383
     95 C31         0.7110   -3.3500    1.8650 c         1 MOL      0.440101
     96 O16         0.9000   -4.5910    1.7330 o         1 MOL     -0.605626
     97 C32        -0.0100   -2.9820    4.2830 c3        1 MOL      0.001478
     98 C33         1.3000   -2.2120    4.6500 c3        1 MOL     -0.128905
     99 C34        -1.0960   -2.2150    4.9910 c3        1 MOL     -0.128905
    100 H41        -1.5750   -4.7320    2.8670 hn        1 MOL      0.288951
    101 H42        -0.7310   -1.8570    2.5690 h1        1 MOL      0.266113
    102 H43        -0.1120   -3.9800    4.6950 hc        1 MOL      0.030803
    103 H44         1.4170   -2.1480    5.7290 hc        1 MOL      0.027741
    104 H45         2.2010   -2.7160    4.3030 hc        1 MOL      0.027741
    105 H46         1.2720   -1.2320    4.1740 hc        1 MOL      0.027741
    106 H47        -0.9850   -2.2490    6.0720 hc        1 MOL      0.027741
    107 H48        -0.9540   -1.1970    4.6260 hc        1 MOL      0.027741
    108 H49        -2.0710   -2.6740    4.8120 hc        1 MOL      0.027741
    109 N10         1.5530   -2.5410    1.3350 n         1 MOL     -0.044649
    110 C35         2.7720   -2.9940    0.6220 c3        1 MOL      0.211555
    111 C36         4.0210   -2.2610    1.1560 c         1 MOL      0.381148
    112 O17         4.0180   -1.2440    1.7940 o         1 MOL     -0.468798
    113 C37         2.4900   -2.8940   -0.8850 c3        1 MOL     -0.261344
    114 C38         3.0780   -1.6060   -1.4700 c         1 MOL      0.681578
    115 N11         2.3380   -0.5170   -1.5500 n         1 MOL     -0.710230
    116 O18         4.2400   -1.5160   -1.8490 o         1 MOL     -0.599868
    117 H50         1.3410   -1.5540    1.3630 hn        1 MOL     -0.038791
    118 H51         3.0190   -4.0160    0.8960 h1        1 MOL      0.009512
    119 H52         1.4170   -2.9370   -1.0150 hc        1 MOL      0.079663
    120 H53         3.0450   -3.6670   -1.4190 hc        1 MOL      0.079663
    121 H54         1.3700   -0.5590   -1.2860 hn        1 MOL      0.374698
    122 H55         2.6690    0.3290   -1.9770 hn        1 MOL      0.374698
    123 N12         5.2060   -2.7160    0.7040 n         1 MOL     -0.368196
    124 C39         6.5430   -2.0910    1.0080 c3        1 MOL      0.155206
    125 C40         6.8300   -0.6240    0.6040 c         1 MOL      0.440000
    126 O19         7.5830   -0.0010    1.2090 o         1 MOL     -0.554858
    127 C41         7.7040   -3.0280    0.6560 c3        1 MOL     -0.155625
    128 C42         7.9770   -3.4210   -0.7730 ca        1 MOL     -0.033098
    129 C43         8.8210   -2.6180   -1.5550 ca        1 MOL     -0.107929
    130 C44         7.2930   -4.4990   -1.4690 ca        1 MOL     -0.107929
    131 C45         8.9730   -2.8590   -2.9280 ca        1 MOL     -0.391469
    132 C46         7.4060   -4.6780   -2.8860 ca        1 MOL     -0.391469
    133 C47         8.2250   -3.7850   -3.5790 ca        1 MOL      0.560004
    134 O20         8.4870   -3.9530   -4.8700 oh        1 MOL     -0.556528
    135 H56         5.1750   -3.4920    0.0640 hn        1 MOL      0.237300
    136 H57         6.5120   -2.0300    2.0980 h1        1 MOL      0.036644
    137 H58         7.4520   -3.9120    1.2380 hc        1 MOL      0.058502
    138 H59         8.6560   -2.6400    1.0330 hc        1 MOL      0.058502
    139 H60         9.3700   -1.8110   -1.0810 ha        1 MOL      0.135371
    140 H61         6.7470   -5.1840   -0.8350 ha        1 MOL      0.135371
    141 H62         9.5990   -2.1770   -3.4810 ha        1 MOL      0.179134
    142 H63         6.8060   -5.4300   -3.3630 ha        1 MOL      0.179134
    143 H64         8.9690   -3.2140   -5.2480 ho        1 MOL      0.375670
    144 N13         6.2150   -0.0960   -0.4200 n         1 MOL     -0.301775
    145 C48         6.1580    1.3970   -0.6440 c3        1 MOL     -0.001200
    146 C49         5.3870    2.1930    0.4000 c         1 MOL      0.484856
    147 O21         5.6230    3.4320    0.5870 o         1 MOL     -0.554180
    148 C50         5.7840    1.7280   -2.1040 c3        1 MOL      0.099179
    149 C51         5.9140    3.2220   -2.4560 c3        1 MOL     -0.091228
    150 C52         5.9430    3.5260   -3.9400 c         1 MOL      0.714222
    151 O22         5.5910    2.6720   -4.7640 o         1 MOL     -0.757336
    152 O23         6.3870    4.6430   -4.2290 o         1 MOL     -0.757336
    153 H65         5.6770   -0.7180   -1.0180 hn        1 MOL      0.257571
    154 H66         7.1510    1.8310   -0.5040 h1        1 MOL      0.093507
    155 H67         4.7670    1.4370   -2.3690 hc        1 MOL     -0.018091
    156 H68         6.5210    1.2460   -2.7550 hc        1 MOL     -0.018091
    157 H69         6.7330    3.7210   -1.9510 hc        1 MOL     -0.017916
    158 H70         4.9580    3.6370   -2.1120 hc        1 MOL     -0.017916
    159 N14         4.5330    1.5220    1.2400 n         1 MOL     -0.376443
    160 C53         3.7210    2.0800    2.3310 c3        1 MOL     -0.090437
    161 C54         4.3310    1.6600    3.7400 c         1 MOL      0.432048
    162 O24         3.7150    1.9460    4.7590 o         1 MOL     -0.536251
    163 C55         2.3070    1.5080    2.2200 c3        1 MOL     -0.139955
    164 C56         1.6060    2.0240    0.9540 c3        1 MOL     -0.107639
    165 C57         0.3240    1.2060    0.5630 c         1 MOL      0.674489
    166 O25        -0.0350    0.1520    1.0760 o         1 MOL     -0.739041
    167 O26        -0.4770    1.7110   -0.2570 o         1 MOL     -0.739041
    168 H71         4.4630    0.5260    1.0690 hn        1 MOL      0.149950
    169 H72         3.7820    3.1720    2.2800 h1        1 MOL      0.112627
    170 H73         1.8080    1.7660    3.1560 hc        1 MOL      0.143492
    171 H74         2.4250    0.4220    2.1860 hc        1 MOL      0.143492
    172 H75         2.2720    2.0130    0.0970 hc        1 MOL      0.091932
    173 H76         1.3320    3.0400    1.2420 hc        1 MOL      0.091932
    174 N15         5.5690    1.1720    3.7760 n         1 MOL     -0.186833
    175 C58         6.2630    0.7370    5.0340 c3        1 MOL     -0.159831
    176 H77         7.2110    0.2630    4.7800 h1        1 MOL      0.076375
    177 H78         6.4500    1.6060    5.6660 h1        1 MOL      0.076375
    178 H79         5.6350    0.0260    5.5700 h1        1 MOL      0.076375
    179 H80         6.0880    1.3940    2.9370 hn        1 MOL      0.245505
    180 Ca1        -2.4470    0.0330    0.1130 Ca        1 MOL      1.748051
    181 O27        -4.8960    0.1680    1.2440 oh        1 MOL     -0.809477
    182 H81        -5.3410    1.0180    1.3300 ho        1 MOL      0.389656
    183 H82        -5.1650   -0.3220    2.0230 ho        1 MOL      0.389656
    184 O28        -2.5880    0.0000    3.0630 oh        1 MOL     -0.809477
    185 H83        -1.8520    0.4350    3.5090 ho        1 MOL      0.389656
    186 H84        -3.2030   -0.1990    3.7650 ho        1 MOL      0.389656
    187 O29        -0.5510   -1.3580   -1.7450 oh        1 MOL     -0.809477
    188 H85        -0.9910   -2.1580   -2.0410 ho        1 MOL      0.389656
    189 H86        -0.9670   -0.6690   -2.2580 ho        1 MOL      0.389656
@<TRIPOS>BOND
     1    1    2 1   
     2    1    4 1   
     3    1    5 1   
     4    1    6 1   
     5    2    3 2   
     6    2    7 1   
     7    7    8 1   
     8    7   15 1   
     9    8    9 1   
    10    8   11 1   
    11    8   16 1   
    12    9   10 2   
    13    9   19 1   
    14   11   12 1   
    15   11   17 1   
    16   11   18 1   
    17   12   13 1   
    18   12   14 1   
    19   19   20 1   
    20   19   27 1   
    21   20   21 1   
    22   20   23 1   
    23   20   28 1   
    24   21   22 2   
    25   21   38 1   
    26   23   24 1   
    27   23   25 1   
    28   23   29 1   
    29   24   26 1   
    30   24   30 1   
    31   24   31 1   
    32   25   32 1   
    33   25   33 1   
    34   25   34 1   
    35   26   35 1   
    36   26   36 1   
    37   26   37 1   
    38   38   39 1   
    39   38   46 1   
    40   39   40 1   
    41   39   42 1   
    42   39   47 1   
    43   40   41 2   
    44   40   50 1   
    45   42   43 1   
    46   42   48 1   
    47   42   49 1   
    48   43   44 1   
    49   43   45 1   
    50   50   51 1   
    51   50   54 1   
    52   51   52 1   
    53   51   55 1   
    54   51   56 1   
    55   52   53 2   
    56   52   57 1   
    57   57   58 1   
    58   57   65 1   
    59   58   59 1   
    60   58   61 1   
    61   58   66 1   
    62   59   60 2   
    63   59   69 1   
    64   61   62 1   
    65   61   67 1   
    66   61   68 1   
    67   62   63 1   
    68   62   64 1   
    69   69   70 1   
    70   69   73 1   
    71   70   71 1   
    72   70   74 1   
    73   70   75 1   
    74   71   72 2   
    75   71   76 1   
    76   76   77 1   
    77   76   85 1   
    78   77   78 1   
    79   77   80 1   
    80   77   86 1   
    81   78   79 2   
    82   78   93 1   
    83   80   81 1   
    84   80   87 1   
    85   80   88 1   
    86   81   82 1   
    87   81   89 1   
    88   81   90 1   
    89   82   83 1   
    90   82   84 2   
    91   83   91 1   
    92   83   92 1   
    93   93   94 1   
    94   93  100 1   
    95   94   95 1   
    96   94   97 1   
    97   94  101 1   
    98   95   96 2   
    99   95  109 1   
   100   97   98 1   
   101   97   99 1   
   102   97  102 1   
   103   98  103 1   
   104   98  104 1   
   105   98  105 1   
   106   99  106 1   
   107   99  107 1   
   108   99  108 1   
   109  109  110 1   
   110  109  117 1   
   111  110  111 1   
   112  110  113 1   
   113  110  118 1   
   114  111  112 2   
   115  111  123 1   
   116  113  114 1   
   117  113  119 1   
   118  113  120 1   
   119  114  115 1   
   120  114  116 2   
   121  115  121 1   
   122  115  122 1   
   123  123  124 1   
   124  123  135 1   
   125  124  125 1   
   126  124  127 1   
   127  124  136 1   
   128  125  126 2   
   129  125  144 1   
   130  127  128 1   
   131  127  137 1   
   132  127  138 1   
   133  128  129 ar  
   134  128  130 ar  
   135  129  131 ar  
   136  129  139 1   
   137  130  132 ar  
   138  130  140 1   
   139  131  133 ar  
   140  131  141 1   
   141  132  133 ar  
   142  132  142 1   
   143  133  134 1   
   144  134  143 1   
   145  144  145 1   
   146  144  153 1   
   147  145  146 1   
   148  145  148 1   
   149  145  154 1   
   150  146  147 2   
   151  146  159 1   
   152  148  149 1   
   153  148  155 1   
   154  148  156 1   
   155  149  150 1   
   156  149  157 1   
   157  149  158 1   
   158  150  151 1   
   159  150  152 1   
   160  159  160 1   
   161  159  168 1   
   162  160  161 1   
   163  160  163 1   
   164  160  169 1   
   165  161  162 2   
   166  161  174 1   
   167  163  164 1   
   168  163  170 1   
   169  163  171 1   
   170  164  165 1   
   171  164  172 1   
   172  164  173 1   
   173  165  166 1   
   174  165  167 1   
   175  174  175 1   
   176  174  179 1   
   177  175  176 1   
   178  175  177 1   
   179  175  178 1   
   180  181  182 1   
   181  181  183 1   
   182  184  185 1   
   183  184  186 1   
   184  187  188 1   
   185  187  189 1   
@<TRIPOS>SUBSTRUCTURE
     1 MOL         1 TEMP              0 ****  ****    0 ROOT
