@<TRIPOS>MOLECULE
MOL
  175   173     1     0     0
SMALL
resp


@<TRIPOS>ATOM
      1 C1          0.6800    5.1060    4.9260 c3        1 MOL     -0.386096
      2 C2          0.1150    4.6670    3.5990 c         1 MOL      0.671912
      3 O1          0.8640    4.6060    2.5850 o         1 MOL     -0.539009
      4 H1          0.9520    6.1600    4.8740 hc        1 MOL      0.096378
      5 H2         -0.0690    4.9630    5.7050 hc        1 MOL      0.096378
      6 H3          1.5650    4.5140    5.1600 hc        1 MOL      0.096378
      7 N1         -1.1990    4.3920    3.5670 n         1 MOL     -0.584055
      8 C3         -1.7920    3.8090    2.4130 c3        1 MOL      0.069424
      9 C4         -2.0100    4.8820    1.2710 c         1 MOL      0.639324
     10 O2         -2.3770    6.0250    1.4790 o         1 MOL     -0.595903
     11 C5         -3.1340    3.1110    2.8140 c3        1 MOL     -0.284348
     12 C6         -3.8050    2.2810    1.7400 c         1 MOL      0.892408
     13 O3         -4.9780    1.9490    1.9370 o         1 MOL     -0.730207
     14 O4         -3.2960    2.0700    0.6210 o         1 MOL     -0.730207
     15 H4         -1.6930    4.3400    4.4500 hn        1 MOL      0.334327
     16 H5         -1.0680    3.0800    2.0510 h1        1 MOL      0.105503
     17 H6         -3.8890    3.8480    3.0960 hc        1 MOL      0.059927
     18 H7         -3.0860    2.4040    3.6450 hc        1 MOL      0.059927
     19 N2         -1.9740    4.4700    0.0220 n         1 MOL     -0.603034
     20 C7         -2.1490    5.3140   -1.1680 c3        1 MOL      0.469485
     21 C8         -3.4400    5.1370   -2.0080 c         1 MOL      0.378099
     22 O5         -3.8190    6.0210   -2.7410 o         1 MOL     -0.554707
     23 C9         -0.9020    5.2290   -2.0080 c3        1 MOL     -0.226098
     24 H8         -1.6780    3.5160   -0.0780 hn        1 MOL      0.274264
     25 H9         -2.2070    6.3680   -0.8870 h1        1 MOL     -0.025901
     26 H10        -0.0230    5.4630   -1.4030 hc        1 MOL      0.045027
     27 H11        -0.8070    4.1780   -2.2920 hc        1 MOL      0.045027
     28 H12        -0.9960    5.9450   -2.8350 hc        1 MOL      0.045027
     29 N3         -4.0250    3.9390   -1.8980 n         1 MOL     -0.381480
     30 C10        -4.9450    3.3440   -2.8380 c3        1 MOL      0.316400
     31 C11        -6.0450    2.5680   -2.1120 c         1 MOL      0.166833
     32 O6         -7.1260    2.3400   -2.7060 o         1 MOL     -0.549971
     33 C12        -4.0890    2.4910   -3.8620 c3        1 MOL     -0.319523
     34 C13        -3.2490    1.3580   -3.1720 c         1 MOL      0.743054
     35 O7         -3.7110    0.8540   -2.1000 o         1 MOL     -0.698927
     36 O8         -2.0960    0.9560   -3.6020 o         1 MOL     -0.698927
     37 H13        -3.5770    3.4000   -1.1800 hn        1 MOL      0.228935
     38 H14        -5.4280    4.1730   -3.3580 h1        1 MOL      0.052878
     39 H15        -3.4700    3.1220   -4.5050 hc        1 MOL      0.064607
     40 H16        -4.9060    2.0370   -4.4250 hc        1 MOL      0.064607
     41 N4         -5.9620    2.0780   -0.9160 n         1 MOL      0.054569
     42 C14        -6.9410    1.2280   -0.2640 c3        1 MOL     -0.241757
     43 C15        -7.1080   -0.1820   -0.9050 c         1 MOL      0.493842
     44 O9         -8.2190   -0.7140   -0.8360 o         1 MOL     -0.594510
     45 H17        -5.1430    2.3410   -0.3910 hn        1 MOL      0.055522
     46 H18        -7.8870    1.7630   -0.2900 h1        1 MOL      0.117990
     47 H19        -6.5970    1.0340    0.7560 h1        1 MOL      0.117990
     48 N5         -6.1130   -0.7610   -1.6380 n         1 MOL     -0.192678
     49 C16        -6.1780   -2.0080   -2.2900 c3        1 MOL     -0.010725
     50 C17        -6.3000   -3.2560   -1.3440 c         1 MOL      0.447300
     51 O10        -6.3490   -4.3830   -1.7840 o         1 MOL     -0.528168
     52 C18        -4.8970   -2.2460   -3.0830 c3        1 MOL     -0.181657
     53 C19        -3.6040   -2.4470   -2.3490 c         1 MOL      0.768281
     54 N6         -2.5990   -2.8390   -3.0250 n         1 MOL     -0.680851
     55 O11        -3.4750   -2.0440   -1.1950 o         1 MOL     -0.734907
     56 H20        -5.2790   -0.2430   -1.8740 hn        1 MOL      0.282589
     57 H21        -7.1230   -2.0310   -2.8400 h1        1 MOL      0.074380
     58 H22        -4.7420   -1.3780   -3.7260 hc        1 MOL      0.028571
     59 H23        -5.0960   -3.1360   -3.6810 hc        1 MOL      0.028571
     60 H24        -2.7310   -3.0020   -4.0100 hn        1 MOL      0.328054
     61 H25        -1.6840   -2.4880   -2.7780 hn        1 MOL      0.328054
     62 N7         -6.2860   -2.9330   -0.0390 n         1 MOL     -0.138309
     63 C20        -6.4760   -3.9530    0.9990 c3        1 MOL     -0.290997
     64 C21        -5.2700   -4.4370    1.7740 c         1 MOL      0.660423
     65 O12        -5.4420   -5.2610    2.6610 o         1 MOL     -0.591309
     66 H26        -5.9250   -2.0100    0.1630 hn        1 MOL      0.140326
     67 H27        -6.8590   -4.8530    0.5170 h1        1 MOL      0.120705
     68 H28        -7.2030   -3.5480    1.7030 h1        1 MOL      0.120705
     69 N8         -4.0880   -3.8390    1.5000 n         1 MOL     -0.564714
     70 C22        -2.7270   -4.2900    1.9020 c3        1 MOL      0.022047
     71 C23        -1.7850   -3.1070    1.9160 c         1 MOL      0.500813
     72 O13        -1.8970   -2.2010    1.1100 o         1 MOL     -0.513107
     73 C24        -2.2160   -5.4170    1.0100 c3        1 MOL      0.609829
     74 C25        -2.8810   -6.7650    1.1540 c3        1 MOL     -0.618288
     75 O14        -2.4950   -5.0870   -0.3470 oh        1 MOL     -0.629825
     76 H29        -4.1660   -3.1680    0.7370 hn        1 MOL      0.358098
     77 H30        -2.7790   -4.7810    2.8630 h1        1 MOL      0.039085
     78 H31        -1.1430   -5.4440    1.2260 h1        1 MOL     -0.084188
     79 H32        -2.1520   -4.1930   -0.4630 ho        1 MOL      0.376706
     80 H33        -2.1050   -7.3990    0.7380 hc        1 MOL      0.158314
     81 H34        -3.0630   -7.0960    2.1740 hc        1 MOL      0.158314
     82 H35        -3.8020   -6.7980    0.5690 hc        1 MOL      0.158314
     83 N9         -0.6920   -3.3260    2.6900 n         1 MOL     -0.542053
     84 C26         0.6450   -2.6580    2.5930 c3        1 MOL      0.101034
     85 C27         1.3760   -3.0670    1.2650 c         1 MOL      0.557278
     86 O15         1.4670   -4.2130    0.8830 o         1 MOL     -0.585276
     87 C28         1.4180   -2.8070    3.9200 c3        1 MOL     -0.037714
     88 C29         0.9960   -1.8220    4.9830 c3        1 MOL     -0.081311
     89 C30         2.9220   -2.5690    3.7690 c3        1 MOL     -0.116028
     90 C31         0.9720   -0.3260    4.5520 c3        1 MOL     -0.011942
     91 H36        -0.6950   -4.1970    3.2040 hn        1 MOL      0.272245
     92 H37         0.5100   -1.5870    2.4400 h1        1 MOL      0.136677
     93 H38         1.2470   -3.8250    4.2710 hc        1 MOL      0.037189
     94 H39         1.6350   -1.9060    5.8620 hc        1 MOL      0.031575
     95 H40         0.0010   -2.0060    5.3830 hc        1 MOL      0.031575
     96 H41         3.0950   -1.5390    3.4610 hc        1 MOL      0.030279
     97 H42         3.4140   -2.8590    4.7020 hc        1 MOL      0.030279
     98 H43         3.2900   -3.2410    2.9960 hc        1 MOL      0.030279
     99 H44         1.7280   -0.0700    3.8190 hc        1 MOL     -0.002325
    100 H45        -0.0140    0.0640    4.3000 hc        1 MOL     -0.002325
    101 H46         1.2030    0.1950    5.4830 hc        1 MOL     -0.002325
    102 N10         1.8270   -2.0960    0.4730 n         1 MOL     -0.118338
    103 C32         2.5850   -2.1830   -0.7620 c3        1 MOL      0.125201
    104 C33         4.0770   -1.7420   -0.4770 c         1 MOL      0.353770
    105 O16         4.3340   -1.0050    0.4700 o         1 MOL     -0.362163
    106 C34         1.9900   -1.3020   -1.8690 c3        1 MOL     -0.382515
    107 C35         0.5250   -1.6830   -2.1640 c         1 MOL      0.827824
    108 O17        -0.4100   -1.1660   -1.5320 o         1 MOL     -0.691461
    109 O18         0.3550   -2.5360   -3.0500 o         1 MOL     -0.691461
    110 H47         1.7050   -1.1610    0.8340 hn        1 MOL     -0.069084
    111 H48         2.4950   -3.2400   -1.0100 h1        1 MOL      0.054260
    112 H49         2.5800   -1.2500   -2.7850 hc        1 MOL      0.096377
    113 H50         2.0120   -0.2590   -1.5290 hc        1 MOL      0.096377
    114 N11         4.9820   -2.1790   -1.3440 n         1 MOL     -0.527288
    115 C36         6.3720   -1.8170   -1.2630 c3        1 MOL      0.310902
    116 C37         6.7660   -0.4110   -1.0350 c         1 MOL      0.415938
    117 O19         7.4250   -0.1850    0.0170 o         1 MOL     -0.493655
    118 C38         7.1140   -2.4200   -2.4700 c3        1 MOL     -0.174239
    119 C39         8.6260   -2.2170   -2.3350 ca        1 MOL      0.033954
    120 C40         9.3410   -2.6980   -1.2300 ca        1 MOL     -0.124721
    121 C41         9.3380   -1.4820   -3.3590 ca        1 MOL     -0.124721
    122 C42        10.6470   -2.4040   -1.0870 ca        1 MOL     -0.155887
    123 C43        10.7300   -1.2000   -3.1800 ca        1 MOL     -0.155887
    124 C44        11.3260   -1.5540   -1.9880 ca        1 MOL     -0.034627
    125 H51         4.7690   -2.7550   -2.1400 hn        1 MOL      0.312843
    126 H52         6.7790   -2.3330   -0.3960 h1        1 MOL      0.042916
    127 H53         6.7230   -1.9090   -3.3410 hc        1 MOL      0.058278
    128 H54         6.8890   -3.4870   -2.4830 hc        1 MOL      0.058278
    129 H55         8.7330   -3.2340   -0.5130 ha        1 MOL      0.108841
    130 H56         8.8090   -1.2010   -4.2580 ha        1 MOL      0.108841
    131 H57        11.2080   -2.7600   -0.2380 ha        1 MOL      0.118792
    132 H58        11.2210   -0.5550   -3.8990 ha        1 MOL      0.118792
    133 H59        12.3970   -1.5060   -1.8400 ha        1 MOL      0.076602
    134 N12         6.3030    0.6340   -1.8240 n         1 MOL     -0.178257
    135 C45         6.5480    2.0380   -1.4760 c3        1 MOL     -0.068958
    136 C46         5.9650    2.5550   -0.1550 c         1 MOL      0.383244
    137 O20         6.5440    3.4590    0.5010 o         1 MOL     -0.498036
    138 C47         6.0770    2.9140   -2.7180 c3        1 MOL     -0.078483
    139 C48         5.0590    1.9890   -3.3430 c3        1 MOL      0.054245
    140 C49         5.5080    0.5520   -3.0650 c3        1 MOL     -0.027053
    141 H60         7.6080    2.1720   -1.3050 h1        1 MOL      0.086184
    142 H61         5.6550    3.9030   -2.5420 hc        1 MOL      0.052687
    143 H62         6.9570    3.1280   -3.3300 hc        1 MOL      0.052687
    144 H63         4.1000    2.2530   -2.9170 hc        1 MOL      0.013218
    145 H64         4.9850    2.1230   -4.4270 hc        1 MOL      0.013218
    146 H65         4.6510   -0.1020   -2.9290 h1        1 MOL      0.033282
    147 H66         6.0630    0.1690   -3.9280 h1        1 MOL      0.033282
    148 N13         4.8160    2.0140    0.2540 n         1 MOL     -0.243401
    149 C50         4.2210    2.3040    1.5710 c3        1 MOL     -0.059750
    150 C51         5.0690    1.8210    2.7570 c         1 MOL      0.395628
    151 O21         5.4420    2.5490    3.7090 o         1 MOL     -0.561148
    152 C52         2.7960    1.7260    1.5350 c3        1 MOL      0.098590
    153 C53         1.9100    2.1950    0.3590 c3        1 MOL     -0.026550
    154 C54         0.5290    1.4590    0.3400 c         1 MOL      0.489702
    155 O22         0.2310    0.4730    1.0250 o         1 MOL     -0.657141
    156 O23        -0.3670    1.9500   -0.4460 o         1 MOL     -0.657141
    157 H67         4.5070    1.1930   -0.2510 hn        1 MOL      0.267123
    158 H68         3.9750    3.3550    1.7050 h1        1 MOL      0.094206
    159 H69         2.2300    2.0460    2.4030 hc        1 MOL     -0.002358
    160 H70         2.8540    0.6380    1.6510 hc        1 MOL     -0.002358
    161 H71         2.4230    1.9930   -0.5860 hc        1 MOL      0.038140
    162 H72         1.7230    3.2710    0.4040 hc        1 MOL      0.038140
    163 N14         5.4980    0.5970    2.6670 n         1 MOL     -0.010727
    164 C55         6.5740   -0.0390    3.4750 c3        1 MOL     -0.099599
    165 H73         7.2860    0.7220    3.7950 h1        1 MOL      0.054726
    166 H74         6.1360   -0.5180    4.3510 h1        1 MOL      0.054726
    167 H75         7.0890   -0.7860    2.8710 h1        1 MOL      0.054726
    168 H76         5.0080    0.0690    1.9670 hn        1 MOL      0.048534
    169 Ca1        -2.1800    0.0730   -0.2600 Ca        1 MOL      1.681210
    170 O24        -1.9960    0.2470    2.6310 oh        1 MOL     -0.776453
    171 H77        -1.1000    0.4790    2.3950 ho        1 MOL      0.383845
    172 H78        -1.9540    0.0680    3.5710 ho        1 MOL      0.383845
    173 O25        -4.5440   -0.4560    1.0270 oh        1 MOL     -0.776453
    174 H79        -4.8470   -1.0020    1.7580 ho        1 MOL      0.383845
    175 H80        -4.7960    0.4340    1.2780 ho        1 MOL      0.383845
@<TRIPOS>BOND
     1    1    2 1   
     2    1    4 1   
     3    1    5 1   
     4    1    6 1   
     5    2    3 2   
     6    2    7 1   
     7    7    8 1   
     8    7   15 1   
     9    8    9 1   
    10    8   11 1   
    11    8   16 1   
    12    9   10 2   
    13    9   19 1   
    14   11   12 1   
    15   11   17 1   
    16   11   18 1   
    17   12   13 1   
    18   12   14 1   
    19   19   20 1   
    20   19   24 1   
    21   20   21 1   
    22   20   23 1   
    23   20   25 1   
    24   21   22 2   
    25   21   29 1   
    26   23   26 1   
    27   23   27 1   
    28   23   28 1   
    29   29   30 1   
    30   29   37 1   
    31   30   31 1   
    32   30   33 1   
    33   30   38 1   
    34   31   32 2   
    35   31   41 1   
    36   33   34 1   
    37   33   39 1   
    38   33   40 1   
    39   34   35 1   
    40   34   36 1   
    41   41   42 1   
    42   41   45 1   
    43   42   43 1   
    44   42   46 1   
    45   42   47 1   
    46   43   44 2   
    47   43   48 1   
    48   48   49 1   
    49   48   56 1   
    50   49   50 1   
    51   49   52 1   
    52   49   57 1   
    53   50   51 2   
    54   50   62 1   
    55   52   53 1   
    56   52   58 1   
    57   52   59 1   
    58   53   54 1   
    59   53   55 2   
    60   54   60 1   
    61   54   61 1   
    62   62   63 1   
    63   62   66 1   
    64   63   64 1   
    65   63   67 1   
    66   63   68 1   
    67   64   65 2   
    68   64   69 1   
    69   69   70 1   
    70   69   76 1   
    71   70   71 1   
    72   70   73 1   
    73   70   77 1   
    74   71   72 2   
    75   71   83 1   
    76   73   74 1   
    77   73   75 1   
    78   73   78 1   
    79   74   80 1   
    80   74   81 1   
    81   74   82 1   
    82   75   79 1   
    83   83   84 1   
    84   83   91 1   
    85   84   85 1   
    86   84   87 1   
    87   84   92 1   
    88   85   86 2   
    89   85  102 1   
    90   87   88 1   
    91   87   89 1   
    92   87   93 1   
    93   88   90 1   
    94   88   94 1   
    95   88   95 1   
    96   89   96 1   
    97   89   97 1   
    98   89   98 1   
    99   90   99 1   
   100   90  100 1   
   101   90  101 1   
   102  102  103 1   
   103  102  110 1   
   104  103  104 1   
   105  103  106 1   
   106  103  111 1   
   107  104  105 2   
   108  104  114 1   
   109  106  107 1   
   110  106  112 1   
   111  106  113 1   
   112  107  108 1   
   113  107  109 1   
   114  114  115 1   
   115  114  125 1   
   116  115  116 1   
   117  115  118 1   
   118  115  126 1   
   119  116  117 2   
   120  116  134 1   
   121  118  119 1   
   122  118  127 1   
   123  118  128 1   
   124  119  120 ar  
   125  119  121 ar  
   126  120  122 ar  
   127  120  129 1   
   128  121  123 ar  
   129  121  130 1   
   130  122  124 ar  
   131  122  131 1   
   132  123  124 ar  
   133  123  132 1   
   134  124  133 1   
   135  134  135 1   
   136  134  140 1   
   137  135  136 1   
   138  135  138 1   
   139  135  141 1   
   140  136  137 2   
   141  136  148 1   
   142  138  139 1   
   143  138  142 1   
   144  138  143 1   
   145  139  140 1   
   146  139  144 1   
   147  139  145 1   
   148  140  146 1   
   149  140  147 1   
   150  148  149 1   
   151  148  157 1   
   152  149  150 1   
   153  149  152 1   
   154  149  158 1   
   155  150  151 2   
   156  150  163 1   
   157  152  153 1   
   158  152  159 1   
   159  152  160 1   
   160  153  154 1   
   161  153  161 1   
   162  153  162 1   
   163  154  155 1   
   164  154  156 1   
   165  163  164 1   
   166  163  168 1   
   167  164  165 1   
   168  164  166 1   
   169  164  167 1   
   170  170  171 1   
   171  170  172 1   
   172  173  174 1   
   173  173  175 1   
@<TRIPOS>SUBSTRUCTURE
     1 MOL         1 TEMP              0 ****  ****    0 ROOT
