@<TRIPOS>MOLECULE
MOL
  183   181     1     0     0
SMALL
resp


@<TRIPOS>ATOM
      1 C1         -1.1170    0.8190    6.4020 c3        1 MOL     -0.421385
      2 C2         -1.3170    1.2400    4.8970 c         1 MOL      0.730635
      3 O1         -0.3390    1.7100    4.2800 o         1 MOL     -0.585103
      4 H1         -0.5990   -0.1400    6.4450 hc        1 MOL      0.095450
      5 H2         -0.5220    1.5740    6.9150 hc        1 MOL      0.095450
      6 H3         -2.0890    0.7290    6.8870 hc        1 MOL      0.095450
      7 N1         -2.4790    1.0170    4.3750 n         1 MOL     -0.588254
      8 C3         -2.7470    1.2230    2.9290 c3        1 MOL      0.265569
      9 C4         -3.2420    2.6990    2.6900 c         1 MOL      0.427074
     10 O2         -4.1930    3.1620    3.2800 o         1 MOL     -0.585648
     11 C5         -3.8600    0.1780    2.5100 c3        1 MOL     -0.278983
     12 C6         -4.6440    0.4770    1.1800 c         1 MOL      0.697316
     13 O3         -5.8810    0.4040    1.2090 o         1 MOL     -0.557325
     14 O4         -3.9950    0.8520    0.1580 o         1 MOL     -0.557325
     15 H4         -3.2250    0.5510    4.8760 hn        1 MOL      0.330027
     16 H5         -1.8600    1.1270    2.3080 h1        1 MOL     -0.007432
     17 H6         -4.4700    0.0610    3.4070 hc        1 MOL      0.028273
     18 H7         -3.3520   -0.7610    2.2750 hc        1 MOL      0.028273
     19 N2         -2.7040    3.3600    1.6820 n         1 MOL     -0.027985
     20 C7         -3.0140    4.6780    1.1420 c3        1 MOL      0.048247
     21 C8         -4.0060    4.5780   -0.0490 c         1 MOL      0.313608
     22 O5         -4.6510    5.5680   -0.2920 o         1 MOL     -0.543202
     23 C9         -1.6720    5.3220    0.8640 c3        1 MOL      0.203989
     24 C10        -0.7950    5.3900    2.1330 c3        1 MOL      0.020494
     25 C11        -1.8370    6.8040    0.2400 c3        1 MOL     -0.466722
     26 C12        -1.5250    5.9780    3.3090 c3        1 MOL     -0.103106
     27 H8         -2.1140    2.8090    1.0730 hn        1 MOL      0.003979
     28 H9         -3.5110    5.2640    1.9150 h1        1 MOL      0.052527
     29 H10        -1.1220    4.6400    0.2290 hc        1 MOL     -0.009365
     30 H11         0.0070    6.0830    1.9000 hc        1 MOL     -0.003709
     31 H12        -0.3900    4.4420    2.4800 hc        1 MOL     -0.003709
     32 H13        -2.3400    7.4690    0.9450 hc        1 MOL      0.115972
     33 H14        -0.8690    7.0770   -0.1690 hc        1 MOL      0.115972
     34 H15        -2.4890    6.6950   -0.6260 hc        1 MOL      0.115972
     35 H16        -0.7610    6.0700    4.0870 hc        1 MOL      0.005487
     36 H17        -1.8540    7.0120    3.2160 hc        1 MOL      0.005487
     37 H18        -2.3010    5.2710    3.6220 hc        1 MOL      0.005487
     38 N3         -4.1170    3.5120   -0.8450 n         1 MOL     -0.079125
     39 C13        -4.9960    3.3730   -2.0150 c3        1 MOL      0.008327
     40 C14        -6.4700    3.1190   -1.7270 c         1 MOL      0.365452
     41 O6         -7.3880    3.5430   -2.4540 o         1 MOL     -0.550394
     42 C15        -4.6150    2.2360   -2.9950 c3        1 MOL     -0.152617
     43 C16        -3.1610    2.2570   -3.3660 c         1 MOL      0.609924
     44 O7         -2.4000    1.5560   -2.6670 o         1 MOL     -0.684315
     45 O8         -2.6740    2.8180   -4.3850 o         1 MOL     -0.684315
     46 H19        -3.6230    2.6440   -0.6610 hn        1 MOL      0.135236
     47 H20        -5.0500    4.2660   -2.6340 h1        1 MOL      0.062661
     48 H21        -5.2370    2.2930   -3.8900 hc        1 MOL      0.060981
     49 H22        -4.7700    1.2750   -2.5240 hc        1 MOL      0.060981
     50 N4         -6.7090    2.2380   -0.7690 n         1 MOL     -0.089567
     51 C17        -8.0150    1.6080   -0.4560 c3        1 MOL     -0.178913
     52 C18        -8.3100    0.3220   -1.2510 c         1 MOL      0.566221
     53 O9         -9.3950    0.0450   -1.7770 o         1 MOL     -0.610820
     54 H23        -5.9340    2.0200   -0.1670 hn        1 MOL      0.129686
     55 H24        -8.8560    2.3050   -0.5800 h1        1 MOL      0.078601
     56 H25        -8.0270    1.3000    0.5880 h1        1 MOL      0.078601
     57 N5         -7.2700   -0.4790   -1.2340 n         1 MOL     -0.100785
     58 C19        -7.2430   -1.9310   -1.6310 c3        1 MOL      0.022079
     59 C20        -7.0420   -2.8730   -0.4520 c         1 MOL      0.331772
     60 O10        -7.3990   -4.0680   -0.5840 o         1 MOL     -0.536980
     61 C21        -6.2260   -2.1310   -2.7410 c3        1 MOL     -0.063597
     62 C22        -4.7850   -1.6850   -2.2740 c         1 MOL      0.422530
     63 O11        -4.0460   -1.1140   -3.0820 o         1 MOL     -0.588284
     64 O12        -4.4150   -1.8050   -1.1010 o         1 MOL     -0.588284
     65 H26        -6.5100   -0.2030   -0.6280 hn        1 MOL     -0.082625
     66 H27        -8.2240   -2.1080   -2.0720 h1        1 MOL      0.077421
     67 H28        -6.4930   -1.4630   -3.5560 hc        1 MOL      0.035436
     68 H29        -6.3120   -3.1680   -3.0720 hc        1 MOL      0.035436
     69 N6         -6.5880   -2.3490    0.6670 n         1 MOL     -0.153584
     70 C23        -6.2940   -3.2560    1.8490 c3        1 MOL     -0.029965
     71 C24        -5.0180   -4.1440    1.7230 c         1 MOL      0.354485
     72 O13        -5.0230   -5.2320    2.2330 o         1 MOL     -0.539949
     73 H30        -6.4600   -1.3530    0.7600 hn        1 MOL      0.169879
     74 H31        -7.1740   -3.9030    1.9120 h1        1 MOL      0.060450
     75 H32        -6.4160   -2.6740    2.7580 h1        1 MOL      0.060450
     76 N7         -4.0870   -3.7310    0.8790 n         1 MOL     -0.005859
     77 C25        -2.7730   -4.3960    0.8060 c3        1 MOL     -0.042679
     78 C26        -1.6960   -3.3410    0.9600 c         1 MOL      0.342148
     79 O14        -1.7990   -2.1580    0.6230 o         1 MOL     -0.527451
     80 C27        -2.6570   -5.2830   -0.4930 c3        1 MOL      0.007233
     81 C28        -3.3920   -4.8910   -1.8350 c3        1 MOL     -0.131265
     82 C29        -2.5940   -3.8940   -2.7370 c         1 MOL      0.488219
     83 N8         -2.8020   -3.8290   -4.0410 n         1 MOL     -0.739468
     84 O15        -1.8090   -3.0620   -2.2340 o         1 MOL     -0.458832
     85 H33        -4.2550   -2.8670    0.3700 hn        1 MOL      0.116818
     86 H34        -2.6720   -5.1280    1.6090 h1        1 MOL      0.065748
     87 H35        -3.0560   -6.2630   -0.2450 hc        1 MOL      0.011725
     88 H36        -1.6210   -5.3930   -0.7920 hc        1 MOL      0.011725
     89 H37        -4.3830   -4.4680   -1.6820 hc        1 MOL      0.060983
     90 H38        -3.6460   -5.8000   -2.3880 hc        1 MOL      0.060983
     91 H39        -3.3920   -4.5370   -4.4490 hn        1 MOL      0.362606
     92 H40        -2.4160   -3.1080   -4.6320 hn        1 MOL      0.362606
     93 N9         -0.6200   -3.7670    1.6150 n         1 MOL     -0.273943
     94 C30         0.5430   -2.9730    1.9320 c3        1 MOL      0.050816
     95 C31         1.6240   -3.3980    1.0010 c         1 MOL      0.424227
     96 O16         2.1900   -4.4770    1.1720 o         1 MOL     -0.596401
     97 C32         1.0190   -3.1820    3.3400 c3        1 MOL      0.238836
     98 C33         1.8600   -1.9000    3.6820 c3        1 MOL     -0.388919
     99 C34        -0.0700   -3.3520    4.4410 c3        1 MOL     -0.388919
    100 H41        -0.6160   -4.6910    2.0320 hn        1 MOL      0.250447
    101 H42         0.3940   -1.9010    1.7450 h1        1 MOL      0.116678
    102 H43         1.7160   -4.0030    3.5050 hc        1 MOL     -0.010318
    103 H44         2.0210   -1.8530    4.7590 hc        1 MOL      0.090670
    104 H45         2.7920   -1.6790    3.1600 hc        1 MOL      0.090670
    105 H46         1.1100   -1.1100    3.7020 hc        1 MOL      0.090670
    106 H47        -0.8170   -2.5520    4.3510 hc        1 MOL      0.090670
    107 H48        -0.4610   -4.3540    4.2990 hc        1 MOL      0.090670
    108 H49         0.3190   -3.2770    5.4560 hc        1 MOL      0.090670
    109 N10         1.9530   -2.6360   -0.0340 n         1 MOL     -0.181699
    110 C35         3.1340   -2.8380   -0.8990 c3        1 MOL      0.118230
    111 C36         4.4010   -2.2060   -0.2990 c         1 MOL      0.317280
    112 O17         4.2750   -1.5650    0.7010 o         1 MOL     -0.311006
    113 C37         2.8100   -2.2360   -2.2690 c3        1 MOL     -0.177865
    114 C38         3.2580   -0.7920   -2.5140 c         1 MOL      0.604940
    115 N11         2.3230    0.1530   -2.3460 n         1 MOL     -0.662183
    116 O18         4.3660   -0.5360   -2.8960 o         1 MOL     -0.485621
    117 H50         1.5000   -1.7290   -0.0450 hn        1 MOL      0.034485
    118 H51         3.3170   -3.9110   -0.9240 h1        1 MOL      0.065300
    119 H52         1.7470   -2.3990   -2.4880 hc        1 MOL      0.040519
    120 H53         3.3640   -2.8390   -2.9910 hc        1 MOL      0.040519
    121 H54         1.4720   -0.0470   -1.8460 hn        1 MOL      0.344110
    122 H55         2.5120    1.1350   -2.4960 hn        1 MOL      0.344110
    123 N12         5.5600   -2.4710   -0.8610 n         1 MOL     -0.307317
    124 C39         6.8290   -1.9970   -0.1670 c3        1 MOL     -0.091741
    125 C40         6.8790   -0.4050   -0.0040 c         1 MOL      0.657207
    126 O19         7.2470    0.0430    1.0960 o         1 MOL     -0.606174
    127 C41         7.9440   -2.3510   -1.1850 c3        1 MOL     -0.123662
    128 C42         9.2900   -1.7420   -0.8590 ca        1 MOL      0.130214
    129 C43         9.9100   -2.0700    0.3850 ca        1 MOL     -0.271579
    130 C44         9.8990   -0.7430   -1.6400 ca        1 MOL     -0.271579
    131 C45        11.0530   -1.4010    0.8310 ca        1 MOL     -0.186197
    132 C46        10.9950    0.0100   -1.1720 ca        1 MOL     -0.186197
    133 C47        11.6110   -0.3280    0.0800 ca        1 MOL      0.305663
    134 O20        12.7430    0.2330    0.4960 oh        1 MOL     -0.475652
    135 H56         5.5900   -3.2440   -1.5250 hn        1 MOL      0.249637
    136 H57         6.9360   -2.5040    0.7880 h1        1 MOL      0.097659
    137 H58         7.6480   -2.0210   -2.1840 hc        1 MOL      0.061227
    138 H59         8.2040   -3.4130   -1.2750 hc        1 MOL      0.061227
    139 H60         9.5060   -2.7780    1.0990 ha        1 MOL      0.153479
    140 H61         9.4850   -0.4200   -2.5860 ha        1 MOL      0.153479
    141 H62        11.5790   -1.8050    1.6890 ha        1 MOL      0.123528
    142 H63        11.3800    0.7950   -1.8120 ha        1 MOL      0.123528
    143 H64        12.9670    0.0390    1.4020 ho        1 MOL      0.343975
    144 N13         6.2740    0.3530   -0.9170 n         1 MOL     -0.040999
    145 C48         6.2590    1.8680   -0.8030 c3        1 MOL     -0.216222
    146 C49         5.1870    2.3960    0.1880 c         1 MOL      0.386451
    147 O21         5.3160    3.5400    0.6630 o         1 MOL     -0.501017
    148 C50         5.9920    2.4160   -2.1990 c3        1 MOL      0.183899
    149 C51         7.0010    1.9560   -3.2730 c3        1 MOL     -0.559445
    150 C52         6.7080    2.7630   -4.5430 c         1 MOL      0.729872
    151 O22         6.0280    2.2930   -5.4230 o         1 MOL     -0.728024
    152 O23         7.0040    3.9940   -4.5510 o         1 MOL     -0.728024
    153 H65         5.7470   -0.1230   -1.6250 hn        1 MOL     -0.049600
    154 H66         7.2940    2.1750   -0.6210 h1        1 MOL      0.130442
    155 H67         5.9400    3.5030   -2.1830 hc        1 MOL      0.042853
    156 H68         4.9700    2.1140   -2.4300 hc        1 MOL      0.042853
    157 H69         6.8670    0.8740   -3.3000 hc        1 MOL      0.139728
    158 H70         8.0210    2.1190   -2.9340 hc        1 MOL      0.139728
    159 N14         4.2280    1.5740    0.6120 n         1 MOL     -0.447728
    160 C53         3.3550    1.8000    1.7450 c3        1 MOL      0.277719
    161 C54         4.0430    1.3220    3.0490 c         1 MOL      0.391803
    162 O24         3.9420    2.0100    4.0390 o         1 MOL     -0.565902
    163 C55         2.0670    1.0430    1.5390 c3        1 MOL      0.013851
    164 C56         1.2290    1.8210    0.5130 c3        1 MOL      0.228128
    165 C57         0.0100    1.0090    0.0980 c         1 MOL      0.573024
    166 O25        -1.1580    1.5310    0.0740 o         1 MOL     -0.659455
    167 O26         0.1570   -0.1220   -0.3870 o         1 MOL     -0.659455
    168 H71         4.1950    0.6710    0.1650 hn        1 MOL      0.251063
    169 H72         3.1410    2.8430    1.9670 h1        1 MOL      0.013291
    170 H73         1.5620    0.8940    2.4870 hc        1 MOL     -0.014175
    171 H74         2.2230    0.0420    1.1380 hc        1 MOL     -0.014175
    172 H75         1.7790    2.1160   -0.3860 hc        1 MOL     -0.065539
    173 H76         0.9360    2.7540    0.9850 hc        1 MOL     -0.065539
    174 N15         4.8320    0.2470    3.0110 n         1 MOL      0.023564
    175 C58         5.6210   -0.2800    4.1390 c3        1 MOL     -0.151214
    176 H77         6.4280   -0.9040    3.7560 h1        1 MOL      0.049937
    177 H78         6.0420    0.5490    4.7070 h1        1 MOL      0.049937
    178 H79         4.9770   -0.8750    4.7870 h1        1 MOL      0.049937
    179 H80         5.0560   -0.2390    2.1560 hn        1 MOL      0.057731
    180 Ca1        -2.2520   -0.4970   -1.2190 Ca        1 MOL      1.649188
    181 O27        -0.6590   -0.5570   -3.3460 oh        1 MOL     -0.803674
    182 H81        -0.2480    0.2570   -3.6330 ho        1 MOL      0.393801
    183 H82        -0.4490   -1.1890   -4.0340 ho        1 MOL      0.393801
@<TRIPOS>BOND
     1    1    2 1   
     2    1    4 1   
     3    1    5 1   
     4    1    6 1   
     5    2    3 2   
     6    2    7 1   
     7    7    8 1   
     8    7   15 1   
     9    8    9 1   
    10    8   11 1   
    11    8   16 1   
    12    9   10 2   
    13    9   19 1   
    14   11   12 1   
    15   11   17 1   
    16   11   18 1   
    17   12   13 1   
    18   12   14 1   
    19   19   20 1   
    20   19   27 1   
    21   20   21 1   
    22   20   23 1   
    23   20   28 1   
    24   21   22 2   
    25   21   38 1   
    26   23   24 1   
    27   23   25 1   
    28   23   29 1   
    29   24   26 1   
    30   24   30 1   
    31   24   31 1   
    32   25   32 1   
    33   25   33 1   
    34   25   34 1   
    35   26   35 1   
    36   26   36 1   
    37   26   37 1   
    38   38   39 1   
    39   38   46 1   
    40   39   40 1   
    41   39   42 1   
    42   39   47 1   
    43   40   41 2   
    44   40   50 1   
    45   42   43 1   
    46   42   48 1   
    47   42   49 1   
    48   43   44 1   
    49   43   45 1   
    50   50   51 1   
    51   50   54 1   
    52   51   52 1   
    53   51   55 1   
    54   51   56 1   
    55   52   53 2   
    56   52   57 1   
    57   57   58 1   
    58   57   65 1   
    59   58   59 1   
    60   58   61 1   
    61   58   66 1   
    62   59   60 2   
    63   59   69 1   
    64   61   62 1   
    65   61   67 1   
    66   61   68 1   
    67   62   63 1   
    68   62   64 1   
    69   69   70 1   
    70   69   73 1   
    71   70   71 1   
    72   70   74 1   
    73   70   75 1   
    74   71   72 2   
    75   71   76 1   
    76   76   77 1   
    77   76   85 1   
    78   77   78 1   
    79   77   80 1   
    80   77   86 1   
    81   78   79 2   
    82   78   93 1   
    83   80   81 1   
    84   80   87 1   
    85   80   88 1   
    86   81   82 1   
    87   81   89 1   
    88   81   90 1   
    89   82   83 1   
    90   82   84 2   
    91   83   91 1   
    92   83   92 1   
    93   93   94 1   
    94   93  100 1   
    95   94   95 1   
    96   94   97 1   
    97   94  101 1   
    98   95   96 2   
    99   95  109 1   
   100   97   98 1   
   101   97   99 1   
   102   97  102 1   
   103   98  103 1   
   104   98  104 1   
   105   98  105 1   
   106   99  106 1   
   107   99  107 1   
   108   99  108 1   
   109  109  110 1   
   110  109  117 1   
   111  110  111 1   
   112  110  113 1   
   113  110  118 1   
   114  111  112 2   
   115  111  123 1   
   116  113  114 1   
   117  113  119 1   
   118  113  120 1   
   119  114  115 1   
   120  114  116 2   
   121  115  121 1   
   122  115  122 1   
   123  123  124 1   
   124  123  135 1   
   125  124  125 1   
   126  124  127 1   
   127  124  136 1   
   128  125  126 2   
   129  125  144 1   
   130  127  128 1   
   131  127  137 1   
   132  127  138 1   
   133  128  129 ar  
   134  128  130 ar  
   135  129  131 ar  
   136  129  139 1   
   137  130  132 ar  
   138  130  140 1   
   139  131  133 ar  
   140  131  141 1   
   141  132  133 ar  
   142  132  142 1   
   143  133  134 1   
   144  134  143 1   
   145  144  145 1   
   146  144  153 1   
   147  145  146 1   
   148  145  148 1   
   149  145  154 1   
   150  146  147 2   
   151  146  159 1   
   152  148  149 1   
   153  148  155 1   
   154  148  156 1   
   155  149  150 1   
   156  149  157 1   
   157  149  158 1   
   158  150  151 1   
   159  150  152 1   
   160  159  160 1   
   161  159  168 1   
   162  160  161 1   
   163  160  163 1   
   164  160  169 1   
   165  161  162 2   
   166  161  174 1   
   167  163  164 1   
   168  163  170 1   
   169  163  171 1   
   170  164  165 1   
   171  164  172 1   
   172  164  173 1   
   173  165  166 1   
   174  165  167 1   
   175  174  175 1   
   176  174  179 1   
   177  175  176 1   
   178  175  177 1   
   179  175  178 1   
   180  181  182 1   
   181  181  183 1   
@<TRIPOS>SUBSTRUCTURE
     1 MOL         1 TEMP              0 ****  ****    0 ROOT
