@<TRIPOS>MOLECULE
MOL
  186   183     1     0     0
SMALL
resp


@<TRIPOS>ATOM
      1 C1          0.6880   -1.5410    6.3660 c3        1 MOL     -0.286811
      2 C2          1.0390   -1.9450    4.9650 c         1 MOL      0.785072
      3 O1          0.2070   -2.5340    4.2540 o         1 MOL     -0.619243
      4 H1          0.5330   -0.4630    6.4040 hc        1 MOL      0.062197
      5 H2         -0.2250   -2.0510    6.6730 hc        1 MOL      0.062197
      6 H3          1.5010   -1.8150    7.0380 hc        1 MOL      0.062197
      7 N1          2.2230   -1.4380    4.5150 n         1 MOL     -0.716937
      8 C3          2.5950   -1.5750    3.0830 c3        1 MOL      0.089435
      9 C4          3.0400   -2.8990    2.6940 c         1 MOL      0.656304
     10 O2          3.9450   -3.5000    3.2480 o         1 MOL     -0.553209
     11 C5          3.8120   -0.6070    3.0400 c3        1 MOL     -0.123466
     12 C6          4.4690   -0.4960    1.6660 c         1 MOL      0.583422
     13 O3          5.7180   -0.5540    1.6480 o         1 MOL     -0.630101
     14 O4          3.8510   -0.7190    0.6110 o         1 MOL     -0.630101
     15 H4          2.7200   -0.7230    5.0440 hn        1 MOL      0.347882
     16 H5          1.7310   -1.1970    2.5330 h1        1 MOL      0.103083
     17 H6          4.5740   -0.9140    3.7560 hc        1 MOL      0.029861
     18 H7          3.4330    0.3510    3.3780 hc        1 MOL      0.029861
     19 N2          2.3990   -3.5210    1.6090 n         1 MOL     -0.542934
     20 C7          2.6310   -4.9560    1.2150 c3        1 MOL      0.027797
     21 C8          3.7500   -5.1730    0.1760 c         1 MOL      0.459557
     22 O5          4.4540   -6.1910    0.2610 o         1 MOL     -0.598168
     23 C9          1.2400   -5.5270    0.7890 c3        1 MOL      0.240380
     24 C10         0.2610   -5.3730    1.9660 c3        1 MOL      0.079501
     25 C11         1.5170   -6.9860    0.3630 c3        1 MOL     -0.265456
     26 C12        -1.0360   -6.1430    1.8360 c3        1 MOL     -0.148485
     27 H8          1.7420   -2.9590    1.0920 hn        1 MOL      0.214221
     28 H9          2.8320   -5.5230    2.1210 h1        1 MOL      0.051768
     29 H10         0.9060   -5.0160   -0.1080 hc        1 MOL     -0.017518
     30 H11        -0.0290   -4.3300    2.0720 hc        1 MOL      0.008722
     31 H12         0.7400   -5.6740    2.8920 hc        1 MOL      0.008722
     32 H13         0.5730   -7.4740    0.0970 hc        1 MOL      0.043934
     33 H14         2.1710   -6.9900   -0.5010 hc        1 MOL      0.043934
     34 H15         1.9330   -7.5720    1.1850 hc        1 MOL      0.043934
     35 H16        -0.8180   -7.2170    1.7610 hc        1 MOL      0.017810
     36 H17        -1.6340   -5.9720    2.7410 hc        1 MOL      0.017810
     37 H18        -1.5990   -5.8690    0.9450 hc        1 MOL      0.017810
     38 N3          3.9000   -4.3390   -0.8320 n         1 MOL     -0.208285
     39 C13         4.7550   -4.4080   -2.0270 c3        1 MOL      0.050175
     40 C14         6.0410   -3.6060   -1.9390 c         1 MOL      0.479140
     41 O6          6.9670   -3.7860   -2.7890 o         1 MOL     -0.561101
     42 C15         3.9540   -3.9310   -3.2240 c3        1 MOL     -0.358716
     43 C16         2.9730   -2.8010   -3.0230 c         1 MOL      0.877733
     44 O7          1.9650   -2.8210   -3.7370 o         1 MOL     -0.715865
     45 O8          3.2370   -1.9150   -2.2120 o         1 MOL     -0.715865
     46 H19         3.5150   -3.4060   -0.7590 hn        1 MOL      0.172283
     47 H20         5.0230   -5.4600   -2.1680 h1        1 MOL      0.092613
     48 H21         3.4330   -4.8570   -3.4990 hc        1 MOL      0.077608
     49 H22         4.6280   -3.7010   -4.0360 hc        1 MOL      0.077608
     50 N4          6.2600   -2.8500   -0.8570 n         1 MOL     -0.356518
     51 C17         7.5190   -2.2910   -0.5150 c3        1 MOL     -0.052135
     52 C18         7.9080   -0.9530   -1.1550 c         1 MOL      0.459599
     53 O9          9.0820   -0.6630   -1.4230 o         1 MOL     -0.600738
     54 H23         5.4980   -2.2720   -0.5180 hn        1 MOL      0.308596
     55 H24         8.2850   -3.0200   -0.7940 h1        1 MOL      0.080956
     56 H25         7.6860   -2.2290    0.5560 h1        1 MOL      0.080956
     57 N5          6.9580   -0.0210   -1.4030 n         1 MOL     -0.128209
     58 C19         7.1940    1.3360   -1.9800 c3        1 MOL     -0.025709
     59 C20         7.3010    2.4390   -0.8940 c         1 MOL      0.407700
     60 O10         7.7090    3.5350   -1.1860 o         1 MOL     -0.559059
     61 C21         6.1440    1.5980   -3.0350 c3        1 MOL     -0.108808
     62 C22         4.7300    1.3740   -2.5610 c         1 MOL      0.579612
     63 O11         3.9460    0.6640   -3.2370 o         1 MOL     -0.674605
     64 O12         4.3450    1.6740   -1.4000 o         1 MOL     -0.674605
     65 H26         6.0450   -0.1930   -1.0120 hn        1 MOL      0.124000
     66 H27         8.1140    1.2930   -2.5580 h1        1 MOL      0.108250
     67 H28         6.2750    1.0510   -3.9630 hc        1 MOL      0.038792
     68 H29         6.2890    2.6400   -3.2840 hc        1 MOL      0.038792
     69 N6          7.0010    2.1400    0.3580 n         1 MOL     -0.124647
     70 C23         6.9960    3.1070    1.4160 c3        1 MOL     -0.112127
     71 C24         5.6590    3.8380    1.5990 c         1 MOL      0.494741
     72 O13         5.6030    4.7360    2.4510 o         1 MOL     -0.600760
     73 H30         6.7990    1.1690    0.5710 hn        1 MOL      0.135574
     74 H31         7.6710    3.9250    1.1900 h1        1 MOL      0.084720
     75 H32         7.4030    2.6730    2.3360 h1        1 MOL      0.084720
     76 N7          4.5560    3.4320    0.9650 n         1 MOL     -0.277388
     77 C25         3.2860    4.1020    1.0060 c3        1 MOL      0.103461
     78 C26         2.0910    3.1550    1.0710 c         1 MOL      0.536355
     79 O14         2.2160    1.9610    0.8850 o         1 MOL     -0.613771
     80 C27         3.1370    4.9910   -0.2400 c3        1 MOL     -0.186972
     81 C28         3.9750    6.2620    0.0130 c3        1 MOL     -0.194561
     82 C29         3.7840    7.2770   -1.0140 c         1 MOL      0.694052
     83 N8          4.1910    7.1130   -2.2080 n         1 MOL     -0.819114
     84 O15         3.1450    8.2940   -0.8240 o         1 MOL     -0.625772
     85 H33         4.6460    2.6380    0.3530 hn        1 MOL      0.223210
     86 H34         3.0910    4.6560    1.9210 h1        1 MOL      0.037683
     87 H35         2.0870    5.2720   -0.3580 hc        1 MOL      0.074350
     88 H36         3.5050    4.4730   -1.1200 hc        1 MOL      0.074350
     89 H37         5.0270    5.9880    0.0050 hc        1 MOL      0.079385
     90 H38         3.7030    6.6740    0.9870 hc        1 MOL      0.079385
     91 H39         4.6990    6.2780   -2.4730 hn        1 MOL      0.371066
     92 H40         3.9380    7.8570   -2.8370 hn        1 MOL      0.371066
     93 N9          0.9230    3.7490    1.5170 n         1 MOL     -0.299360
     94 C30        -0.2850    2.9510    1.7920 c3        1 MOL      0.050147
     95 C31        -1.4370    3.3390    0.8210 c         1 MOL      0.168886
     96 O16        -2.0980    4.3790    0.9170 o         1 MOL     -0.534879
     97 C32        -0.7510    2.9300    3.2980 c3        1 MOL      0.331436
     98 C33        -1.9220    2.0040    3.8320 c3        1 MOL     -0.407738
     99 C34         0.4850    2.6270    4.1950 c3        1 MOL     -0.407738
    100 H41         0.9420    4.7480    1.6820 hn        1 MOL      0.245861
    101 H42        -0.1970    1.8880    1.5420 h1        1 MOL      0.063142
    102 H43        -0.9740    3.9700    3.5450 hc        1 MOL     -0.052372
    103 H44        -2.1540    2.1500    4.8830 hc        1 MOL      0.092661
    104 H45        -2.8180    2.1920    3.2460 hc        1 MOL      0.092661
    105 H46        -1.7050    0.9560    3.6520 hc        1 MOL      0.092661
    106 H47         0.9500    1.6830    3.8920 hc        1 MOL      0.092661
    107 H48         1.2170    3.4080    3.9910 hc        1 MOL      0.092661
    108 H49         0.1470    2.6880    5.2290 hc        1 MOL      0.092661
    109 N10        -1.7580    2.4470   -0.0900 n         1 MOL      0.003181
    110 C35        -2.9310    2.5520   -1.0640 c3        1 MOL      0.040940
    111 C36        -4.1740    2.3090   -0.2540 c         1 MOL      0.310352
    112 O17        -4.0750    1.5780    0.7130 o         1 MOL     -0.208362
    113 C37        -2.7610    1.5100   -2.2080 c3        1 MOL     -0.233114
    114 C38        -3.6400    1.8300   -3.3790 c         1 MOL      0.678654
    115 N11        -3.1650    2.7510   -4.2270 n         1 MOL     -0.792471
    116 O18        -4.8240    1.5190   -3.3890 o         1 MOL     -0.531637
    117 H50        -1.1820    1.6420   -0.2970 hn        1 MOL      0.171037
    118 H51        -2.9630    3.5760   -1.4550 h1        1 MOL      0.037944
    119 H52        -3.0800    0.5310   -1.8420 hc        1 MOL      0.091570
    120 H53        -1.7250    1.3800   -2.4980 hc        1 MOL      0.091570
    121 H54        -2.2070    3.0380   -4.4070 hn        1 MOL      0.353201
    122 H55        -3.7950    3.1130   -4.9320 hn        1 MOL      0.353201
    123 N12        -5.3640    2.6620   -0.7170 n         1 MOL     -0.415970
    124 C39        -6.6560    2.1450   -0.1320 c3        1 MOL      0.037532
    125 C40        -6.7090    0.6340   -0.0380 c         1 MOL      0.771958
    126 O19        -7.2550    0.1570    0.9330 o         1 MOL     -0.600252
    127 C41        -7.8860    2.6150   -0.9230 c3        1 MOL     -0.079745
    128 C42        -9.2570    2.0220   -0.5690 ca        1 MOL      0.027489
    129 C43       -10.0010    2.5390    0.5270 ca        1 MOL     -0.266997
    130 C44        -9.7140    0.8860   -1.2970 ca        1 MOL     -0.266997
    131 C45       -11.2730    1.9820    0.8060 ca        1 MOL     -0.070254
    132 C46       -10.9320    0.3480   -0.9210 ca        1 MOL     -0.070254
    133 C47       -11.7810    0.9070    0.0230 ca        1 MOL      0.186609
    134 O20       -12.9810    0.3190    0.2410 oh        1 MOL     -0.523370
    135 H56        -5.4540    3.3460   -1.4580 hn        1 MOL      0.283311
    136 H57        -6.7550    2.5960    0.8550 h1        1 MOL      0.063247
    137 H58        -7.7420    2.5620   -2.0070 hc        1 MOL      0.047348
    138 H59        -8.0580    3.6800   -0.7650 hc        1 MOL      0.047348
    139 H60        -9.6660    3.4280    1.0460 ha        1 MOL      0.158839
    140 H61        -9.1310    0.4320   -2.0860 ha        1 MOL      0.158839
    141 H62       -11.7820    2.5020    1.6090 ha        1 MOL      0.093274
    142 H63       -11.3260   -0.5060   -1.4400 ha        1 MOL      0.093274
    143 H64       -13.1300   -0.4420   -0.3210 ho        1 MOL      0.399015
    144 N13        -6.2130   -0.1590   -1.0210 n         1 MOL     -0.234462
    145 C48        -6.2750   -1.5590   -1.0770 c3        1 MOL     -0.061212
    146 C49        -5.3700   -2.1430    0.0470 c         1 MOL      0.360178
    147 O21        -5.5670   -3.2990    0.4020 o         1 MOL     -0.516935
    148 C50        -5.7440   -1.9010   -2.4980 c3        1 MOL      0.082404
    149 C51        -6.2800   -3.3520   -2.8570 c3        1 MOL     -0.327095
    150 C52        -6.0330   -3.6200   -4.3140 c         1 MOL      0.758890
    151 O22        -4.9080   -4.0060   -4.7300 o         1 MOL     -0.763818
    152 O23        -6.9920   -3.4620   -5.1160 o         1 MOL     -0.763818
    153 H65        -5.6990    0.2770   -1.7770 hn        1 MOL      0.057976
    154 H66        -7.3080   -1.8680   -0.9140 h1        1 MOL      0.101778
    155 H67        -4.6610   -1.7930   -2.4600 hc        1 MOL      0.040579
    156 H68        -6.1140   -1.3190   -3.3400 hc        1 MOL      0.040579
    157 H69        -7.3640   -3.4200   -2.7960 hc        1 MOL      0.055211
    158 H70        -5.7770   -4.1230   -2.2710 hc        1 MOL      0.055211
    159 N14        -4.4930   -1.3250    0.6980 n         1 MOL     -0.016127
    160 C53        -3.6380   -1.7120    1.7910 c3        1 MOL     -0.025077
    161 C54        -4.2620   -1.2480    3.1520 c         1 MOL      0.386418
    162 O24        -4.0720   -1.9650    4.1450 o         1 MOL     -0.540658
    163 C55        -2.2470   -1.2000    1.5700 c3        1 MOL      0.129410
    164 C56        -1.5860   -1.8900    0.3260 c3        1 MOL     -0.035485
    165 C57        -0.2380   -1.1580   -0.0280 c         1 MOL      0.427383
    166 O25         0.8500   -1.8440   -0.1330 o         1 MOL     -0.628299
    167 O26        -0.2050    0.0580   -0.3510 o         1 MOL     -0.628299
    168 H71        -4.5520   -0.3420    0.5120 hn        1 MOL     -0.100558
    169 H72        -3.5840   -2.8030    1.8340 h1        1 MOL      0.072508
    170 H73        -1.6490   -1.5360    2.4150 hc        1 MOL      0.024082
    171 H74        -2.3930   -0.1320    1.4100 hc        1 MOL      0.024082
    172 H75        -2.2870   -1.7980   -0.5010 hc        1 MOL      0.042440
    173 H76        -1.4280   -2.9530    0.4920 hc        1 MOL      0.042440
    174 N15        -4.9640   -0.1070    3.1850 n         1 MOL      0.011479
    175 C58        -5.8170    0.3910    4.2570 c3        1 MOL     -0.301672
    176 H77        -5.8650    1.4790    4.2060 h1        1 MOL      0.100370
    177 H78        -6.8190   -0.0230    4.1470 h1        1 MOL      0.100370
    178 H79        -5.4030    0.0920    5.2200 h1        1 MOL      0.100370
    179 H80        -4.9420    0.4790    2.3640 hn        1 MOL      0.020630
    180 Ca1         2.2750    0.2090   -1.2060 Ca        1 MOL      1.704278
    181 O27         1.0810    2.6100   -1.8690 oh        1 MOL     -0.850781
    182 H81         0.5730    3.4230   -1.9000 ho        1 MOL      0.398541
    183 H82         1.5330    2.5840   -2.7050 ho        1 MOL      0.398541
    184 O28         0.9010   -0.1820   -3.4650 oh        1 MOL     -0.850781
    185 H83         0.0240   -0.0880   -3.8170 ho        1 MOL      0.398541
    186 H84         1.1870   -1.0450   -3.7590 ho        1 MOL      0.398541
@<TRIPOS>BOND
     1    1    2 1   
     2    1    4 1   
     3    1    5 1   
     4    1    6 1   
     5    2    3 2   
     6    2    7 1   
     7    7    8 1   
     8    7   15 1   
     9    8    9 1   
    10    8   11 1   
    11    8   16 1   
    12    9   10 2   
    13    9   19 1   
    14   11   12 1   
    15   11   17 1   
    16   11   18 1   
    17   12   13 1   
    18   12   14 1   
    19   19   20 1   
    20   19   27 1   
    21   20   21 1   
    22   20   23 1   
    23   20   28 1   
    24   21   22 2   
    25   21   38 1   
    26   23   24 1   
    27   23   25 1   
    28   23   29 1   
    29   24   26 1   
    30   24   30 1   
    31   24   31 1   
    32   25   32 1   
    33   25   33 1   
    34   25   34 1   
    35   26   35 1   
    36   26   36 1   
    37   26   37 1   
    38   38   39 1   
    39   38   46 1   
    40   39   40 1   
    41   39   42 1   
    42   39   47 1   
    43   40   41 2   
    44   40   50 1   
    45   42   43 1   
    46   42   48 1   
    47   42   49 1   
    48   43   44 1   
    49   43   45 1   
    50   50   51 1   
    51   50   54 1   
    52   51   52 1   
    53   51   55 1   
    54   51   56 1   
    55   52   53 2   
    56   52   57 1   
    57   57   58 1   
    58   57   65 1   
    59   58   59 1   
    60   58   61 1   
    61   58   66 1   
    62   59   60 2   
    63   59   69 1   
    64   61   62 1   
    65   61   67 1   
    66   61   68 1   
    67   62   63 1   
    68   62   64 1   
    69   69   70 1   
    70   69   73 1   
    71   70   71 1   
    72   70   74 1   
    73   70   75 1   
    74   71   72 2   
    75   71   76 1   
    76   76   77 1   
    77   76   85 1   
    78   77   78 1   
    79   77   80 1   
    80   77   86 1   
    81   78   79 2   
    82   78   93 1   
    83   80   81 1   
    84   80   87 1   
    85   80   88 1   
    86   81   82 1   
    87   81   89 1   
    88   81   90 1   
    89   82   83 1   
    90   82   84 2   
    91   83   91 1   
    92   83   92 1   
    93   93   94 1   
    94   93  100 1   
    95   94   95 1   
    96   94   97 1   
    97   94  101 1   
    98   95   96 2   
    99   95  109 1   
   100   97   98 1   
   101   97   99 1   
   102   97  102 1   
   103   98  103 1   
   104   98  104 1   
   105   98  105 1   
   106   99  106 1   
   107   99  107 1   
   108   99  108 1   
   109  109  110 1   
   110  109  117 1   
   111  110  111 1   
   112  110  113 1   
   113  110  118 1   
   114  111  112 2   
   115  111  123 1   
   116  113  114 1   
   117  113  119 1   
   118  113  120 1   
   119  114  115 1   
   120  114  116 2   
   121  115  121 1   
   122  115  122 1   
   123  123  124 1   
   124  123  135 1   
   125  124  125 1   
   126  124  127 1   
   127  124  136 1   
   128  125  126 2   
   129  125  144 1   
   130  127  128 1   
   131  127  137 1   
   132  127  138 1   
   133  128  129 ar  
   134  128  130 ar  
   135  129  131 ar  
   136  129  139 1   
   137  130  132 ar  
   138  130  140 1   
   139  131  133 ar  
   140  131  141 1   
   141  132  133 ar  
   142  132  142 1   
   143  133  134 1   
   144  134  143 1   
   145  144  145 1   
   146  144  153 1   
   147  145  146 1   
   148  145  148 1   
   149  145  154 1   
   150  146  147 2   
   151  146  159 1   
   152  148  149 1   
   153  148  155 1   
   154  148  156 1   
   155  149  150 1   
   156  149  157 1   
   157  149  158 1   
   158  150  151 1   
   159  150  152 1   
   160  159  160 1   
   161  159  168 1   
   162  160  161 1   
   163  160  163 1   
   164  160  169 1   
   165  161  162 2   
   166  161  174 1   
   167  163  164 1   
   168  163  170 1   
   169  163  171 1   
   170  164  165 1   
   171  164  172 1   
   172  164  173 1   
   173  165  166 1   
   174  165  167 1   
   175  174  175 1   
   176  174  179 1   
   177  175  176 1   
   178  175  177 1   
   179  175  178 1   
   180  181  182 1   
   181  181  183 1   
   182  184  185 1   
   183  184  186 1   
@<TRIPOS>SUBSTRUCTURE
     1 MOL         1 TEMP              0 ****  ****    0 ROOT
