@<TRIPOS>MOLECULE
MOL
  169   169     1     0     0
SMALL
resp


@<TRIPOS>ATOM
      1 C1          0.1300    3.4690    5.7070 c3        1 MOL     -0.452470
      2 C2         -0.4230    3.4540    4.3130 c         1 MOL      0.764600
      3 O1          0.2090    3.9080    3.3820 o         1 MOL     -0.593535
      4 H1         -0.6090    3.0600    6.3950 hc        1 MOL      0.110349
      5 H2          1.0360    2.8640    5.7450 hc        1 MOL      0.110349
      6 H3          0.3650    4.4950    5.9930 hc        1 MOL      0.110349
      7 N1         -1.6690    3.0170    4.1430 n         1 MOL     -0.658023
      8 C3         -2.2610    2.7120    2.7890 c3        1 MOL      0.281691
      9 C4         -2.7400    3.9780    2.0640 c         1 MOL      0.494227
     10 O2         -3.6160    4.7390    2.4770 o         1 MOL     -0.582650
     11 C5         -3.3490    1.6850    2.9100 c3        1 MOL     -0.403937
     12 C6         -3.8130    1.0910    1.5600 c         1 MOL      0.994279
     13 O3         -3.5220    1.7310    0.5630 o         1 MOL     -0.842444
     14 O4         -4.2780   -0.0500    1.4070 o         1 MOL     -0.842444
     15 H4         -2.1560    2.6250    4.9350 hn        1 MOL      0.326615
     16 H5         -1.4760    2.2110    2.2140 h1        1 MOL      0.049707
     17 H6         -4.2970    1.9260    3.3960 hc        1 MOL      0.073485
     18 H7         -2.9190    0.8700    3.5010 hc        1 MOL      0.073485
     19 N2         -2.0430    4.1430    0.9350 n         1 MOL     -0.277576
     20 C7         -2.1640    5.3130    0.0970 c3        1 MOL      0.166988
     21 C8         -3.3970    5.2100   -0.9470 c         1 MOL      0.435416
     22 O5         -4.0430    6.2030   -1.2990 o         1 MOL     -0.578258
     23 C9         -0.8130    5.5920   -0.4850 c3        1 MOL     -0.336446
     24 H8         -1.4280    3.4070    0.6090 hn        1 MOL      0.221041
     25 H9         -2.4140    6.1230    0.7760 h1        1 MOL      0.040332
     26 H10        -0.8990    6.3850   -1.2250 hc        1 MOL      0.079958
     27 H11        -0.1990    5.9410    0.3420 hc        1 MOL      0.079958
     28 H12        -0.4610    4.6640   -0.9510 hc        1 MOL      0.079958
     29 N3         -3.8290    3.9830   -1.2910 n         1 MOL     -0.246993
     30 C10        -4.7850    3.8290   -2.3520 c3        1 MOL      0.054290
     31 C11        -6.0910    3.1020   -1.9360 c         1 MOL      0.398798
     32 O6         -7.1100    3.2630   -2.6080 o         1 MOL     -0.557139
     33 C12        -4.0760    3.1060   -3.4910 c3        1 MOL     -0.035999
     34 C13        -3.3420    1.8380   -3.0530 c         1 MOL      0.590845
     35 O7         -2.4100    1.4350   -3.7960 o         1 MOL     -0.669045
     36 O8         -3.7860    1.1220   -2.1520 o         1 MOL     -0.669045
     37 H13        -3.4830    3.1330   -0.8640 hn        1 MOL      0.204458
     38 H14        -5.1810    4.7820   -2.7070 h1        1 MOL      0.079019
     39 H15        -3.4400    3.7680   -4.0790 hc        1 MOL      0.008459
     40 H16        -4.8920    2.8290   -4.1540 hc        1 MOL      0.008459
     41 N4         -6.0710    2.3150   -0.8260 n         1 MOL     -0.147669
     42 C14        -7.1880    1.6560   -0.1560 c3        1 MOL     -0.179282
     43 C15        -7.2930    0.1910   -0.6040 c         1 MOL      0.630279
     44 O9         -8.3330   -0.4140   -0.3680 o         1 MOL     -0.622892
     45 H17        -5.2350    2.3590   -0.2650 hn        1 MOL      0.148190
     46 H18        -8.1360    2.1270   -0.3970 h1        1 MOL      0.098198
     47 H19        -7.1260    1.7330    0.9320 h1        1 MOL      0.098198
     48 N5         -6.2790   -0.3390   -1.3400 n         1 MOL     -0.399741
     49 C16        -6.2760   -1.6930   -1.9250 c3        1 MOL      0.047024
     50 C17        -6.1790   -2.9310   -0.9540 c         1 MOL      0.317293
     51 O10        -5.9040   -4.0810   -1.4470 o         1 MOL     -0.505827
     52 C18        -5.1730   -1.7310   -2.9870 c3        1 MOL     -0.196177
     53 C19        -3.7850   -2.0980   -2.5820 c         1 MOL      0.680073
     54 N6         -2.8540   -2.1240   -3.4860 n         1 MOL     -0.631398
     55 O11        -3.3820   -2.2810   -1.4430 o         1 MOL     -0.690201
     56 H20        -5.4750    0.2220   -1.5880 hn        1 MOL      0.260026
     57 H21        -7.2400   -1.8790   -2.3980 h1        1 MOL      0.097266
     58 H22        -5.1250   -0.8070   -3.5510 hc        1 MOL      0.075276
     59 H23        -5.4100   -2.4410   -3.7690 hc        1 MOL      0.075276
     60 H24        -3.1180   -1.8020   -4.4090 hn        1 MOL      0.328074
     61 H25        -1.8590   -2.1960   -3.3080 hn        1 MOL      0.328074
     62 N7         -6.3110   -2.7290    0.3590 n         1 MOL     -0.117220
     63 C20        -6.4330   -3.8480    1.2540 c3        1 MOL     -0.210574
     64 C21        -5.0400   -4.3460    1.6690 c         1 MOL      0.552661
     65 O12        -4.9310   -5.1460    2.5300 o         1 MOL     -0.580310
     66 H26        -6.7070   -1.8370    0.5900 hn        1 MOL      0.251164
     67 H27        -7.1020   -4.6170    0.8580 h1        1 MOL      0.106630
     68 H28        -6.9500   -3.4990    2.1510 h1        1 MOL      0.106630
     69 N8         -3.9260   -3.9230    1.0460 n         1 MOL     -0.152675
     70 C22        -2.5780   -4.5510    1.2660 c3        1 MOL     -0.054245
     71 C23        -1.5040   -3.4620    1.3170 c         1 MOL      0.430057
     72 O13        -1.7350   -2.3010    0.9440 o         1 MOL     -0.513052
     73 C24        -2.1290   -5.4490    0.0780 c3        1 MOL      0.542175
     74 C25        -3.0330   -6.6900    0.0440 c3        1 MOL     -0.419012
     75 O14        -2.2270   -4.7400   -1.2100 oh        1 MOL     -0.644287
     76 H29        -3.9110   -3.1870    0.3550 hn        1 MOL      0.036442
     77 H30        -2.4780   -5.1010    2.2110 h1        1 MOL      0.070280
     78 H31        -1.1410   -5.8050    0.3710 h1        1 MOL     -0.062096
     79 H32        -2.6290   -3.8790   -1.0300 ho        1 MOL      0.444319
     80 H33        -3.1780   -7.0980    1.0420 hc        1 MOL      0.089071
     81 H34        -4.0220   -6.4100   -0.3290 hc        1 MOL      0.089071
     82 H35        -2.6030   -7.4050   -0.6620 hc        1 MOL      0.089071
     83 N9         -0.3910   -3.8170    1.9640 n         1 MOL     -0.548012
     84 C26         0.7690   -2.8920    1.8250 c3        1 MOL      0.201501
     85 C27         1.5040   -3.1530    0.4830 c         1 MOL      0.532624
     86 O15         2.0950   -4.2310    0.2930 o         1 MOL     -0.585980
     87 C28         1.6500   -2.9450    3.1030 c3        1 MOL      0.064448
     88 C29         0.7120   -2.9710    4.4320 c3        1 MOL      0.110952
     89 C30         2.5870   -1.7590    3.1590 c3        1 MOL     -0.108280
     90 C31         1.5650   -2.9300    5.7250 c3        1 MOL     -0.509772
     91 H36        -0.3070   -4.7510    2.3390 hn        1 MOL      0.309870
     92 H37         0.3470   -1.8830    1.8260 h1        1 MOL      0.041896
     93 H38         2.1680   -3.8710    2.8700 hc        1 MOL     -0.032054
     94 H39         0.0970   -3.8660    4.4310 hc        1 MOL      0.009250
     95 H40        -0.0030   -2.1460    4.4990 hc        1 MOL      0.009250
     96 H41         2.0730   -0.8060    3.2620 hc        1 MOL      0.008262
     97 H42         3.2890   -1.8970    3.9760 hc        1 MOL      0.008262
     98 H43         3.1250   -1.6790    2.2110 hc        1 MOL      0.008262
     99 H44         1.9930   -1.9200    5.6760 hc        1 MOL      0.126700
    100 H45         0.8790   -3.0160    6.5690 hc        1 MOL      0.126700
    101 H46         2.4190   -3.5870    5.6510 hc        1 MOL      0.126700
    102 N10         1.5280   -2.1300   -0.3590 n         1 MOL     -0.303395
    103 C32         2.5640   -1.8920   -1.4010 c3        1 MOL      0.193367
    104 C33         3.9610   -1.3930   -0.9420 c         1 MOL      0.408643
    105 O16         4.1000   -0.9350    0.1990 o         1 MOL     -0.292757
    106 C34         1.9700   -1.0110   -2.4640 c3        1 MOL     -0.173813
    107 C35         0.6410   -1.3950   -2.9250 c         1 MOL      0.658841
    108 O17         0.3960   -1.7720   -4.0980 o         1 MOL     -0.646144
    109 O18        -0.4020   -1.2040   -2.1980 o         1 MOL     -0.646144
    110 H47         0.8750   -1.3680   -0.2080 hn        1 MOL     -0.011022
    111 H48         2.7630   -2.7890   -1.9910 h1        1 MOL      0.035262
    112 H49         2.7170   -1.0740   -3.2500 hc        1 MOL      0.054072
    113 H50         1.9780   -0.0300   -1.9670 hc        1 MOL      0.054072
    114 N11         5.0400   -1.5190   -1.7150 n         1 MOL     -0.706655
    115 C36         6.4470   -1.0880   -1.4040 c3        1 MOL      0.531119
    116 C37         6.6300    0.4220   -0.9530 c         1 MOL      0.124762
    117 O19         7.3200    0.7180    0.0060 o         1 MOL     -0.458475
    118 C38         7.3710   -1.6310   -2.4530 c3        1 MOL     -0.331803
    119 C39         8.8960   -1.4000   -2.1470 ca        1 MOL      0.213536
    120 C40         9.7070   -0.5870   -2.9530 ca        1 MOL     -0.237467
    121 C41         9.5070   -2.1290   -1.0940 ca        1 MOL     -0.237467
    122 C42        11.1110   -0.5420   -2.7400 ca        1 MOL     -0.032595
    123 C43        10.8960   -2.0320   -0.8750 ca        1 MOL     -0.032595
    124 C44        11.7340   -1.3160   -1.7090 ca        1 MOL     -0.191130
    125 H51         4.9390   -1.8740   -2.6490 hn        1 MOL      0.346925
    126 H52         6.7810   -1.6510   -0.5300 h1        1 MOL      0.029268
    127 H53         7.0600   -1.0220   -3.3020 hc        1 MOL      0.084263
    128 H54         7.2400   -2.7040   -2.5960 hc        1 MOL      0.084263
    129 H55         9.3290   -0.1350   -3.8580 ha        1 MOL      0.130693
    130 H56         8.8510   -2.6840   -0.4230 ha        1 MOL      0.130693
    131 H57        11.7650   -0.1470   -3.5030 ha        1 MOL      0.086158
    132 H58        11.4420   -2.5660   -0.1200 ha        1 MOL      0.086158
    133 H59        12.7760   -1.0740   -1.5540 ha        1 MOL      0.125782
    134 N12         5.9460    1.4300   -1.5430 n         1 MOL      0.106306
    135 C45         5.9690    2.8240   -1.0200 c3        1 MOL      0.043214
    136 C46         5.4320    2.9250    0.4520 c         1 MOL      0.254460
    137 O20         5.8690    3.7830    1.2160 o         1 MOL     -0.514295
    138 C47         5.0570    3.5260   -2.0360 c3        1 MOL     -0.037295
    139 C48         5.2150    2.7200   -3.3650 c3        1 MOL     -0.033602
    140 C49         5.3710    1.2660   -2.8540 c3        1 MOL     -0.072886
    141 H60         6.9610    3.2510   -1.1630 h1        1 MOL      0.051241
    142 H61         4.0140    3.4530   -1.7300 hc        1 MOL      0.031852
    143 H62         5.2990    4.5780   -2.1860 hc        1 MOL      0.031852
    144 H63         4.3080    2.7470   -3.9670 hc        1 MOL      0.029184
    145 H64         6.0650    3.0560   -3.9530 hc        1 MOL      0.029184
    146 H65         4.3700    0.8350   -2.7800 h1        1 MOL      0.023107
    147 H66         6.0610    0.8520   -3.5930 h1        1 MOL      0.023107
    148 N13         4.6280    1.9970    0.8590 n         1 MOL      0.047487
    149 C50         3.7730    1.9390    2.0020 c3        1 MOL     -0.030253
    150 C51         4.5320    1.1720    3.0870 c         1 MOL      0.420750
    151 O21         4.5330    1.5770    4.2560 o         1 MOL     -0.569082
    152 C52         2.3520    1.4660    1.6860 c3        1 MOL      0.013270
    153 C53         1.6790    2.0680    0.4630 c3        1 MOL      0.015762
    154 C54         0.3440    1.3910    0.2340 c         1 MOL      0.655351
    155 O22        -0.5710    1.9310   -0.4530 o         1 MOL     -0.727235
    156 O23         0.0800    0.2220    0.5260 o         1 MOL     -0.727235
    157 H67         4.5070    1.2420    0.1870 hn        1 MOL      0.006522
    158 H68         3.6900    2.8970    2.5070 h1        1 MOL      0.059675
    159 H69         1.7900    1.6440    2.6010 hc        1 MOL      0.046576
    160 H70         2.5080    0.3980    1.4980 hc        1 MOL      0.046576
    161 H71         2.2980    1.9880   -0.4350 hc        1 MOL      0.016553
    162 H72         1.5950    3.1400    0.6560 hc        1 MOL      0.016553
    163 N14         5.1850    0.0830    2.7160 n         1 MOL      0.006725
    164 C55         6.2080   -0.4920    3.6220 c3        1 MOL     -0.129303
    165 H73         6.2490   -1.5720    3.4820 h1        1 MOL      0.057175
    166 H74         7.1820   -0.0590    3.3920 h1        1 MOL      0.057175
    167 H75         5.9450   -0.2700    4.6550 h1        1 MOL      0.057175
    168 H76         5.1420   -0.1740    1.7480 hn        1 MOL      0.022874
    169 Ca1        -2.2340   -0.1540   -0.6130 Ca        1 MOL      1.739221
@<TRIPOS>BOND
     1    1    2 1   
     2    1    4 1   
     3    1    5 1   
     4    1    6 1   
     5    2    3 2   
     6    2    7 1   
     7    7    8 1   
     8    7   15 1   
     9    8    9 1   
    10    8   11 1   
    11    8   16 1   
    12    9   10 2   
    13    9   19 1   
    14   11   12 1   
    15   11   17 1   
    16   11   18 1   
    17   12   13 1   
    18   12   14 1   
    19   19   20 1   
    20   19   24 1   
    21   20   21 1   
    22   20   23 1   
    23   20   25 1   
    24   21   22 2   
    25   21   29 1   
    26   23   26 1   
    27   23   27 1   
    28   23   28 1   
    29   29   30 1   
    30   29   37 1   
    31   30   31 1   
    32   30   33 1   
    33   30   38 1   
    34   31   32 2   
    35   31   41 1   
    36   33   34 1   
    37   33   39 1   
    38   33   40 1   
    39   34   35 1   
    40   34   36 1   
    41   41   42 1   
    42   41   45 1   
    43   42   43 1   
    44   42   46 1   
    45   42   47 1   
    46   43   44 2   
    47   43   48 1   
    48   48   49 1   
    49   48   56 1   
    50   49   50 1   
    51   49   52 1   
    52   49   57 1   
    53   50   51 2   
    54   50   62 1   
    55   52   53 1   
    56   52   58 1   
    57   52   59 1   
    58   53   54 1   
    59   53   55 2   
    60   54   60 1   
    61   54   61 1   
    62   62   63 1   
    63   62   66 1   
    64   63   64 1   
    65   63   67 1   
    66   63   68 1   
    67   64   65 2   
    68   64   69 1   
    69   69   70 1   
    70   69   76 1   
    71   70   71 1   
    72   70   73 1   
    73   70   77 1   
    74   71   72 2   
    75   71   83 1   
    76   73   74 1   
    77   73   75 1   
    78   73   78 1   
    79   74   80 1   
    80   74   81 1   
    81   74   82 1   
    82   75   79 1   
    83   83   84 1   
    84   83   91 1   
    85   84   85 1   
    86   84   87 1   
    87   84   92 1   
    88   85   86 2   
    89   85  102 1   
    90   87   88 1   
    91   87   89 1   
    92   87   93 1   
    93   88   90 1   
    94   88   94 1   
    95   88   95 1   
    96   89   96 1   
    97   89   97 1   
    98   89   98 1   
    99   90   99 1   
   100   90  100 1   
   101   90  101 1   
   102  102  103 1   
   103  102  110 1   
   104  103  104 1   
   105  103  106 1   
   106  103  111 1   
   107  104  105 2   
   108  104  114 1   
   109  106  107 1   
   110  106  112 1   
   111  106  113 1   
   112  107  108 1   
   113  107  109 1   
   114  114  115 1   
   115  114  125 1   
   116  115  116 1   
   117  115  118 1   
   118  115  126 1   
   119  116  117 2   
   120  116  134 1   
   121  118  119 1   
   122  118  127 1   
   123  118  128 1   
   124  119  120 ar  
   125  119  121 ar  
   126  120  122 ar  
   127  120  129 1   
   128  121  123 ar  
   129  121  130 1   
   130  122  124 ar  
   131  122  131 1   
   132  123  124 ar  
   133  123  132 1   
   134  124  133 1   
   135  134  135 1   
   136  134  140 1   
   137  135  136 1   
   138  135  138 1   
   139  135  141 1   
   140  136  137 2   
   141  136  148 1   
   142  138  139 1   
   143  138  142 1   
   144  138  143 1   
   145  139  140 1   
   146  139  144 1   
   147  139  145 1   
   148  140  146 1   
   149  140  147 1   
   150  148  149 1   
   151  148  157 1   
   152  149  150 1   
   153  149  152 1   
   154  149  158 1   
   155  150  151 2   
   156  150  163 1   
   157  152  153 1   
   158  152  159 1   
   159  152  160 1   
   160  153  154 1   
   161  153  161 1   
   162  153  162 1   
   163  154  155 1   
   164  154  156 1   
   165  163  164 1   
   166  163  168 1   
   167  164  165 1   
   168  164  166 1   
   169  164  167 1   
@<TRIPOS>SUBSTRUCTURE
     1 MOL         1 TEMP              0 ****  ****    0 ROOT
