@<TRIPOS>MOLECULE
MOL
  172   171     1     0     0
SMALL
resp


@<TRIPOS>ATOM
      1 C1          0.1590    4.2140    5.4730 c3        1 MOL     -0.419539
      2 C2         -0.4100    3.9840    4.0920 c         1 MOL      0.755082
      3 O1          0.3440    3.8280    3.1300 o         1 MOL     -0.573181
      4 H1          0.5580    3.2780    5.8620 hc        1 MOL      0.099254
      5 H2          0.9580    4.9540    5.4180 hc        1 MOL      0.099254
      6 H3         -0.6280    4.5770    6.1350 hc        1 MOL      0.099254
      7 N1         -1.7240    3.9920    3.9650 n         1 MOL     -0.616523
      8 C3         -2.3710    3.5890    2.6830 c3        1 MOL      0.148730
      9 C4         -2.5810    4.7600    1.6520 c         1 MOL      0.559514
     10 O2         -2.9460    5.8760    2.0100 o         1 MOL     -0.563190
     11 C5         -3.6880    2.8020    2.8770 c3        1 MOL     -0.277773
     12 C6         -4.2940    2.0870    1.6500 c         1 MOL      0.631812
     13 O3         -3.5530    1.8760    0.6780 o         1 MOL     -0.669541
     14 O4         -5.4240    1.5150    1.7070 o         1 MOL     -0.669541
     15 H4         -2.3330    4.1370    4.7590 hn        1 MOL      0.321406
     16 H5         -1.6720    2.8700    2.2470 h1        1 MOL      0.074862
     17 H6         -4.4950    3.4840    3.1870 hc        1 MOL      0.066293
     18 H7         -3.6000    2.0510    3.6690 hc        1 MOL      0.066293
     19 N2         -2.3300    4.4380    0.3780 n         1 MOL     -0.516514
     20 C7         -2.4830    5.4160   -0.7210 c3        1 MOL      0.207564
     21 C8         -3.1420    4.8480   -2.0030 c         1 MOL      0.555239
     22 O5         -2.9300    5.4610   -3.1070 o         1 MOL     -0.567373
     23 C9         -1.2520    6.3010   -0.8510 c3        1 MOL     -0.163254
     24 H8         -2.1280    3.4560    0.2440 hn        1 MOL      0.378915
     25 H9         -3.2090    6.1340   -0.3290 h1        1 MOL      0.013118
     26 H10        -1.2720    7.0130   -0.0310 hc        1 MOL      0.041253
     27 H11        -0.2490    5.8560   -0.9020 hc        1 MOL      0.041253
     28 H12        -1.2590    6.8660   -1.7830 hc        1 MOL      0.041253
     29 N3         -3.9120    3.7470   -1.8990 n         1 MOL     -0.548368
     30 C10        -4.7490    3.1920   -2.9850 c3        1 MOL      0.277572
     31 C11        -6.1130    2.6220   -2.6130 c         1 MOL      0.316888
     32 O6         -7.1210    2.9780   -3.3320 o         1 MOL     -0.538483
     33 C12        -4.0680    2.0460   -3.7370 c3        1 MOL     -0.167650
     34 C13        -3.2340    1.1390   -2.8220 c         1 MOL      0.613663
     35 O7         -3.8400    0.3330   -2.1160 o         1 MOL     -0.635521
     36 O8         -2.0350    1.2880   -2.6240 o         1 MOL     -0.635521
     37 H13        -3.7700    3.2660   -1.0220 hn        1 MOL      0.260551
     38 H14        -5.0900    3.9180   -3.7240 h1        1 MOL      0.037082
     39 H15        -3.3820    2.5000   -4.4470 hc        1 MOL      0.035235
     40 H16        -4.7390    1.3900   -4.3060 hc        1 MOL      0.035235
     41 N4         -6.2530    1.9490   -1.4380 n         1 MOL     -0.231867
     42 C14        -7.4770    1.2300   -1.1050 c3        1 MOL     -0.107765
     43 C15        -7.5210   -0.2790   -1.3320 c         1 MOL      0.554043
     44 O9         -8.5520   -0.8770   -1.0560 o         1 MOL     -0.621237
     45 H17        -5.4310    1.8090   -0.8710 hn        1 MOL      0.234244
     46 H18        -8.3420    1.5700   -1.6750 h1        1 MOL      0.089884
     47 H19        -7.7240    1.3930   -0.0550 h1        1 MOL      0.089884
     48 N5         -6.4840   -0.8990   -1.8470 n         1 MOL     -0.191756
     49 C16        -6.3750   -2.3550   -1.8960 c3        1 MOL     -0.269990
     50 C17        -6.2530   -3.1390   -0.5410 c         1 MOL      0.499538
     51 O10        -6.2350   -4.3800   -0.4980 o         1 MOL     -0.522952
     52 C18        -5.1840   -2.6840   -2.7620 c3        1 MOL     -0.006576
     53 C19        -3.7370   -2.4330   -2.2430 c         1 MOL      0.291388
     54 N6         -2.8050   -2.5150   -3.1310 n         1 MOL     -0.542677
     55 O11        -3.4180   -2.3380   -1.0950 o         1 MOL     -0.092601
     56 H20        -5.6050   -0.4100   -1.7890 hn        1 MOL      0.108963
     57 H21        -7.3080   -2.7660   -2.2930 h1        1 MOL      0.173934
     58 H22        -5.3540   -2.1790   -3.7080 hc        1 MOL      0.041099
     59 H23        -5.2220   -3.7230   -3.1020 hc        1 MOL      0.041099
     60 H24        -3.0800   -2.7780   -4.0680 hn        1 MOL      0.295648
     61 H25        -1.8960   -2.1630   -2.8580 hn        1 MOL      0.295648
     62 N7         -6.3330   -2.4890    0.6530 n         1 MOL     -0.224161
     63 C20        -6.0590   -3.1490    1.9370 c3        1 MOL     -0.287020
     64 C21        -4.8710   -4.0110    2.2110 c         1 MOL      0.538361
     65 O12        -4.8460   -4.8800    3.1020 o         1 MOL     -0.605627
     66 H26        -6.6070   -1.5170    0.6700 hn        1 MOL      0.289593
     67 H27        -6.9050   -3.7820    2.2070 h1        1 MOL      0.115502
     68 H28        -5.9190   -2.3820    2.6990 h1        1 MOL      0.115502
     69 N8         -3.7950   -3.8530    1.4730 n         1 MOL      0.148263
     70 C22        -2.4140   -4.4050    1.6630 c3        1 MOL     -0.461759
     71 C23        -1.3090   -3.3540    1.6020 c         1 MOL      0.673769
     72 O13        -1.5330   -2.2860    1.0710 o         1 MOL     -0.646231
     73 C24        -2.0580   -5.5770    0.6910 c3        1 MOL      0.608626
     74 C25        -3.0730   -6.8110    0.7670 c3        1 MOL     -0.612104
     75 O14        -2.1220   -5.0670   -0.6250 oh        1 MOL     -0.611416
     76 H29        -3.9260   -3.1400    0.7660 hn        1 MOL     -0.110622
     77 H30        -2.4380   -4.8350    2.6680 h1        1 MOL      0.107841
     78 H31        -1.0500   -5.9530    0.8720 h1        1 MOL     -0.039777
     79 H32        -2.3040   -4.1270   -0.7050 ho        1 MOL      0.295671
     80 H33        -4.0460   -6.4660    0.4210 hc        1 MOL      0.152928
     81 H34        -2.7320   -7.6040    0.0970 hc        1 MOL      0.152928
     82 H35        -3.2490   -7.0840    1.8080 hc        1 MOL      0.152928
     83 N9         -0.0980   -3.7580    2.0940 n         1 MOL     -0.448255
     84 C26         1.0720   -2.8620    1.9460 c3        1 MOL      0.254415
     85 C27         1.7430   -3.0070    0.5850 c         1 MOL      0.387290
     86 O15         1.9030   -4.1130    0.1240 o         1 MOL     -0.560139
     87 C28         1.9910   -3.1050    3.1570 c3        1 MOL     -0.018952
     88 C29         1.4050   -2.7270    4.5110 c3        1 MOL      0.035157
     89 C30         3.4340   -2.5930    2.9070 c3        1 MOL      0.117242
     90 C31         1.2330   -1.2890    4.8960 c3        1 MOL     -0.255285
     91 H36         0.0980   -4.7000    2.4020 hn        1 MOL      0.264816
     92 H37         0.6950   -1.8460    2.0770 h1        1 MOL      0.070449
     93 H38         2.1110   -4.1820    3.1980 hc        1 MOL     -0.031869
     94 H39         2.0700   -3.1870    5.2400 hc        1 MOL     -0.010782
     95 H40         0.4590   -3.2520    4.6070 hc        1 MOL     -0.010782
     96 H41         4.0610   -2.9460    3.7230 hc        1 MOL     -0.035694
     97 H42         3.8360   -3.0770    2.0180 hc        1 MOL     -0.035694
     98 H43         3.4520   -1.5120    2.7660 hc        1 MOL     -0.035694
     99 H44         2.0760   -0.7250    4.4960 hc        1 MOL      0.067601
    100 H45         0.3120   -0.8980    4.4540 hc        1 MOL      0.067601
    101 H46         1.3460   -1.1980    5.9740 hc        1 MOL      0.067601
    102 N10         2.0090   -1.8460   -0.0290 n         1 MOL     -0.045621
    103 C32         2.6010   -1.6580   -1.3820 c3        1 MOL      0.048129
    104 C33         4.0030   -1.0460   -1.2260 c         1 MOL      0.456730
    105 O16         4.2680   -0.4120   -0.1800 o         1 MOL     -0.382661
    106 C34         1.6850   -0.7850   -2.2260 c3        1 MOL     -0.265006
    107 C35         0.3410   -1.5090   -2.6000 c         1 MOL      0.692036
    108 O17        -0.6430   -1.5090   -1.8340 o         1 MOL     -0.664657
    109 O18         0.1650   -1.8630   -3.7760 o         1 MOL     -0.664657
    110 H47         1.6870   -1.0110    0.4400 hn        1 MOL     -0.070915
    111 H48         2.7250   -2.6420   -1.8300 h1        1 MOL      0.058717
    112 H49         2.2370   -0.4620   -3.1080 hc        1 MOL      0.082620
    113 H50         1.3220    0.0780   -1.6540 hc        1 MOL      0.082620
    114 N11         4.9390   -1.3270   -2.1360 n         1 MOL     -0.563534
    115 C36         6.3450   -1.1140   -1.8290 c3        1 MOL      0.236987
    116 C37         6.8430    0.1480   -1.0790 c         1 MOL      0.366092
    117 O19         7.6090   -0.0240   -0.1010 o         1 MOL     -0.481903
    118 C38         7.3110   -1.4050   -2.9990 c3        1 MOL     -0.225093
    119 C39         8.7120   -1.6910   -2.5220 ca        1 MOL      0.043673
    120 C40         9.2230   -2.9930   -2.3690 ca        1 MOL     -0.105731
    121 C41         9.6150   -0.6250   -2.3200 ca        1 MOL     -0.105731
    122 C42        10.5260   -3.3020   -1.9070 ca        1 MOL     -0.135741
    123 C43        10.9440   -0.9200   -1.9500 ca        1 MOL     -0.135741
    124 C44        11.4120   -2.2370   -1.7460 ca        1 MOL     -0.112110
    125 H51         4.7360   -1.8410   -2.9850 hn        1 MOL      0.336174
    126 H52         6.5600   -1.8810   -1.0820 h1        1 MOL      0.054768
    127 H53         7.2710   -0.5860   -3.7290 hc        1 MOL      0.078424
    128 H54         6.9660   -2.3020   -3.5000 hc        1 MOL      0.078424
    129 H55         8.6710   -3.8440   -2.7440 ha        1 MOL      0.097036
    130 H56         9.3700    0.3870   -2.6160 ha        1 MOL      0.097036
    131 H57        10.8510   -4.3120   -1.7370 ha        1 MOL      0.115339
    132 H58        11.6320   -0.1000   -1.7400 ha        1 MOL      0.115339
    133 H59        12.4460   -2.3720   -1.4570 ha        1 MOL      0.102289
    134 N12         6.3560    1.3700   -1.4390 n         1 MOL     -0.020580
    135 C45         6.5870    2.6460   -0.7900 c3        1 MOL     -0.191846
    136 C46         5.7430    2.8510    0.5020 c         1 MOL      0.435921
    137 O20         6.1440    3.6550    1.3640 o         1 MOL     -0.560022
    138 C47         6.3490    3.6830   -1.9090 c3        1 MOL      0.073167
    139 C48         5.2580    3.1800   -2.7740 c3        1 MOL     -0.076918
    140 C49         5.5920    1.7100   -2.6960 c3        1 MOL     -0.033576
    141 H60         7.6420    2.6930   -0.5240 h1        1 MOL      0.103805
    142 H61         6.1160    4.6680   -1.5020 hc        1 MOL      0.011263
    143 H62         7.2730    3.8110   -2.4710 hc        1 MOL      0.011263
    144 H63         4.3550    3.5230   -2.2730 hc        1 MOL      0.049544
    145 H64         5.4170    3.5810   -3.7800 hc        1 MOL      0.049544
    146 H65         4.6350    1.2010   -2.6150 h1        1 MOL      0.036600
    147 H66         5.9780    1.4310   -3.6790 h1        1 MOL      0.036600
    148 N13         4.7620    2.0730    0.7770 n         1 MOL     -0.154922
    149 C50         4.0060    2.0550    2.0400 c3        1 MOL     -0.179577
    150 C51         4.6530    1.1900    3.1030 c         1 MOL      0.500384
    151 O21         4.5430    1.5710    4.2960 o         1 MOL     -0.560244
    152 C52         2.6260    1.5630    1.8110 c3        1 MOL      0.047446
    153 C53         1.8240    2.2670    0.6430 c3        1 MOL      0.142091
    154 C54         0.3920    1.5980    0.4240 c         1 MOL      0.498926
    155 O22        -0.4600    2.1770   -0.2850 o         1 MOL     -0.696901
    156 O23         0.1000    0.4880    0.9020 o         1 MOL     -0.696901
    157 H67         4.5320    1.2820    0.1950 hn        1 MOL      0.152379
    158 H68         3.9210    3.0430    2.4910 h1        1 MOL      0.129986
    159 H69         2.0980    1.5970    2.7680 hc        1 MOL      0.022180
    160 H70         2.6530    0.4930    1.5860 hc        1 MOL      0.022180
    161 H71         2.3250    2.2990   -0.3300 hc        1 MOL     -0.006595
    162 H72         1.6840    3.3070    0.9250 hc        1 MOL     -0.006595
    163 N14         5.4430    0.1800    2.7030 n         1 MOL     -0.072725
    164 C55         6.4330   -0.4500    3.5470 c3        1 MOL     -0.207699
    165 H73         6.5650   -1.4870    3.2390 h1        1 MOL      0.078772
    166 H74         7.3810    0.0800    3.4540 h1        1 MOL      0.078772
    167 H75         6.0980   -0.4190    4.5840 h1        1 MOL      0.078772
    168 H76         5.4170   -0.1240    1.7470 hn        1 MOL      0.115367
    169 Ca1        -2.0920   -0.1420   -0.2980 Ca        1 MOL      1.685019
    170 O24        -3.9540   -0.9320    1.4320 oh        1 MOL     -0.922021
    171 H77        -3.2990   -0.9270    2.1280 ho        1 MOL      0.429516
    172 H78        -4.6670   -0.3790    1.7660 ho        1 MOL      0.429516
@<TRIPOS>BOND
     1    1    2 1   
     2    1    4 1   
     3    1    5 1   
     4    1    6 1   
     5    2    3 2   
     6    2    7 1   
     7    7    8 1   
     8    7   15 1   
     9    8    9 1   
    10    8   11 1   
    11    8   16 1   
    12    9   10 2   
    13    9   19 1   
    14   11   12 1   
    15   11   17 1   
    16   11   18 1   
    17   12   13 1   
    18   12   14 1   
    19   19   20 1   
    20   19   24 1   
    21   20   21 1   
    22   20   23 1   
    23   20   25 1   
    24   21   22 2   
    25   21   29 1   
    26   23   26 1   
    27   23   27 1   
    28   23   28 1   
    29   29   30 1   
    30   29   37 1   
    31   30   31 1   
    32   30   33 1   
    33   30   38 1   
    34   31   32 2   
    35   31   41 1   
    36   33   34 1   
    37   33   39 1   
    38   33   40 1   
    39   34   35 1   
    40   34   36 1   
    41   41   42 1   
    42   41   45 1   
    43   42   43 1   
    44   42   46 1   
    45   42   47 1   
    46   43   44 2   
    47   43   48 1   
    48   48   49 1   
    49   48   56 1   
    50   49   50 1   
    51   49   52 1   
    52   49   57 1   
    53   50   51 2   
    54   50   62 1   
    55   52   53 1   
    56   52   58 1   
    57   52   59 1   
    58   53   54 1   
    59   53   55 2   
    60   54   60 1   
    61   54   61 1   
    62   62   63 1   
    63   62   66 1   
    64   63   64 1   
    65   63   67 1   
    66   63   68 1   
    67   64   65 2   
    68   64   69 1   
    69   69   70 1   
    70   69   76 1   
    71   70   71 1   
    72   70   73 1   
    73   70   77 1   
    74   71   72 2   
    75   71   83 1   
    76   73   74 1   
    77   73   75 1   
    78   73   78 1   
    79   74   80 1   
    80   74   81 1   
    81   74   82 1   
    82   75   79 1   
    83   83   84 1   
    84   83   91 1   
    85   84   85 1   
    86   84   87 1   
    87   84   92 1   
    88   85   86 2   
    89   85  102 1   
    90   87   88 1   
    91   87   89 1   
    92   87   93 1   
    93   88   90 1   
    94   88   94 1   
    95   88   95 1   
    96   89   96 1   
    97   89   97 1   
    98   89   98 1   
    99   90   99 1   
   100   90  100 1   
   101   90  101 1   
   102  102  103 1   
   103  102  110 1   
   104  103  104 1   
   105  103  106 1   
   106  103  111 1   
   107  104  105 2   
   108  104  114 1   
   109  106  107 1   
   110  106  112 1   
   111  106  113 1   
   112  107  108 1   
   113  107  109 1   
   114  114  115 1   
   115  114  125 1   
   116  115  116 1   
   117  115  118 1   
   118  115  126 1   
   119  116  117 2   
   120  116  134 1   
   121  118  119 1   
   122  118  127 1   
   123  118  128 1   
   124  119  120 ar  
   125  119  121 ar  
   126  120  122 ar  
   127  120  129 1   
   128  121  123 ar  
   129  121  130 1   
   130  122  124 ar  
   131  122  131 1   
   132  123  124 ar  
   133  123  132 1   
   134  124  133 1   
   135  134  135 1   
   136  134  140 1   
   137  135  136 1   
   138  135  138 1   
   139  135  141 1   
   140  136  137 2   
   141  136  148 1   
   142  138  139 1   
   143  138  142 1   
   144  138  143 1   
   145  139  140 1   
   146  139  144 1   
   147  139  145 1   
   148  140  146 1   
   149  140  147 1   
   150  148  149 1   
   151  148  157 1   
   152  149  150 1   
   153  149  152 1   
   154  149  158 1   
   155  150  151 2   
   156  150  163 1   
   157  152  153 1   
   158  152  159 1   
   159  152  160 1   
   160  153  154 1   
   161  153  161 1   
   162  153  162 1   
   163  154  155 1   
   164  154  156 1   
   165  163  164 1   
   166  163  168 1   
   167  164  165 1   
   168  164  166 1   
   169  164  167 1   
   170  170  171 1   
   171  170  172 1   
@<TRIPOS>SUBSTRUCTURE
     1 MOL         1 TEMP              0 ****  ****    0 ROOT
