@<TRIPOS>MOLECULE
MOL
  189   185     1     0     0
SMALL
resp


@<TRIPOS>ATOM
      1 C1          0.4790   -3.2630    5.8630 c3        1 MOL     -0.570077
      2 C2          0.9870   -2.8770    4.4590 c         1 MOL      0.608923
      3 O1          0.7900   -1.7810    3.9970 o         1 MOL     -0.449369
      4 H1          1.3100   -3.6470    6.4560 hc        1 MOL      0.153528
      5 H2          0.0610   -2.3840    6.3540 hc        1 MOL      0.153528
      6 H3         -0.2890   -4.0300    5.7740 hc        1 MOL      0.153528
      7 N1          1.4960   -3.8870    3.7610 n         1 MOL     -0.539021
      8 C3          2.1140   -3.7150    2.5070 c3        1 MOL      0.193175
      9 C4          1.7370   -4.8820    1.5570 c         1 MOL      0.417816
     10 O2          1.7460   -6.1090    1.8880 o         1 MOL     -0.601324
     11 C5          3.6630   -3.5510    2.6550 c3        1 MOL     -0.167377
     12 C6          4.3340   -2.9670    1.3940 c         1 MOL      0.782608
     13 O3          3.6040   -2.5190    0.5140 o         1 MOL     -0.698627
     14 O4          5.5290   -2.7460    1.4510 o         1 MOL     -0.698627
     15 H4          1.6850   -4.7470    4.2580 hn        1 MOL      0.306732
     16 H5          1.7250   -2.7880    2.0710 h1        1 MOL      0.057072
     17 H6          4.1210   -4.4790    2.9840 hc        1 MOL      0.008134
     18 H7          3.7880   -2.8090    3.4540 hc        1 MOL      0.008134
     19 N2          1.5040   -4.6030    0.2700 n         1 MOL     -0.050460
     20 C7          1.3140   -5.5660   -0.8600 c3        1 MOL     -0.044570
     21 C8          2.3940   -5.2300   -1.9220 c         1 MOL      0.461774
     22 O5          2.8130   -6.1430   -2.6750 o         1 MOL     -0.585895
     23 C9         -0.1470   -5.3000   -1.3230 c3        1 MOL      0.217554
     24 C10        -1.2170   -5.6830   -0.2150 c3        1 MOL      0.316236
     25 C11        -0.4220   -6.1810   -2.5470 c3        1 MOL     -0.369215
     26 C12        -1.3050   -7.1480    0.1720 c3        1 MOL     -0.294252
     27 H8          1.4790   -3.6440   -0.0310 hn        1 MOL     -0.154943
     28 H9          1.3510   -6.5650   -0.4250 h1        1 MOL      0.083996
     29 H10        -0.3140   -4.2560   -1.5680 hc        1 MOL      0.007111
     30 H11        -2.2060   -5.3550   -0.5560 hc        1 MOL     -0.072255
     31 H12        -1.0530   -5.1140    0.6960 hc        1 MOL     -0.072255
     32 H13        -0.0290   -7.1740   -2.3030 hc        1 MOL      0.076664
     33 H14        -1.4940   -6.1710   -2.7020 hc        1 MOL      0.076664
     34 H15         0.1100   -5.8250   -3.4260 hc        1 MOL      0.076664
     35 H16        -1.5570   -7.7290   -0.7140 hc        1 MOL      0.049330
     36 H17        -0.3340   -7.4470    0.5670 hc        1 MOL      0.049330
     37 H18        -2.0220   -7.2660    0.9850 hc        1 MOL      0.049330
     38 N3          2.9020   -4.0140   -2.0750 n         1 MOL     -0.349923
     39 C13         3.6150   -3.6320   -3.2890 c3        1 MOL      0.160609
     40 C14         5.0370   -3.0440   -3.0940 c         1 MOL      0.334776
     41 O6          5.7190   -2.9850   -4.0660 o         1 MOL     -0.548641
     42 C15         2.7040   -2.6920   -4.0980 c3        1 MOL     -0.303089
     43 C16         2.3370   -1.4140   -3.2690 c         1 MOL      0.786790
     44 O7          3.0350   -1.1090   -2.2860 o         1 MOL     -0.713449
     45 O8          1.2570   -0.8820   -3.5190 o         1 MOL     -0.713449
     46 H19         2.5800   -3.2610   -1.4830 hn        1 MOL      0.338518
     47 H20         3.8280   -4.4840   -3.9330 h1        1 MOL      0.076589
     48 H21         1.8450   -3.2350   -4.4880 hc        1 MOL      0.077770
     49 H22         3.3070   -2.3350   -4.9270 hc        1 MOL      0.077770
     50 N4          5.4930   -2.6700   -1.9230 n         1 MOL     -0.062847
     51 C17         6.9050   -2.1780   -1.6310 c3        1 MOL     -0.337171
     52 C18         7.1140   -0.7280   -2.0870 c         1 MOL      0.465520
     53 O9          8.2340   -0.2510   -2.2620 o         1 MOL     -0.578773
     54 H23         4.8630   -2.7100   -1.1240 hn        1 MOL      0.032409
     55 H24         7.4750   -2.8850   -2.2340 h1        1 MOL      0.155331
     56 H25         7.1340   -2.3500   -0.5820 h1        1 MOL      0.155331
     57 N5          6.0260    0.0680   -2.3740 n         1 MOL     -0.062481
     58 C19         6.2310    1.3780   -2.9600 c3        1 MOL     -0.172291
     59 C20         6.7130    2.5270   -1.9860 c         1 MOL      0.516295
     60 O10         7.2090    3.5560   -2.4360 o         1 MOL     -0.595530
     61 C21         4.9180    1.9500   -3.6310 c3        1 MOL     -0.174417
     62 C22         3.7000    2.1180   -2.5980 c         1 MOL      0.745542
     63 O11         3.8230    1.7040   -1.4130 o         1 MOL     -0.709588
     64 O12         2.6680    2.6830   -3.0170 o         1 MOL     -0.709588
     65 H26         5.1190   -0.3820   -2.3100 hn        1 MOL      0.191425
     66 H27         7.0550    1.2780   -3.6780 h1        1 MOL      0.113197
     67 H28         4.5980    1.2540   -4.4160 hc        1 MOL      0.047528
     68 H29         5.0560    2.9200   -4.1220 hc        1 MOL      0.047528
     69 N6          6.6190    2.3170   -0.7200 n         1 MOL     -0.257021
     70 C23         7.0530    3.3030    0.3550 c3        1 MOL     -0.048540
     71 C24         6.0070    4.0040    1.1600 c         1 MOL      0.556973
     72 O13         6.3500    4.8180    1.9590 o         1 MOL     -0.597207
     73 H30         6.1590    1.4740   -0.4170 hn        1 MOL      0.178494
     74 H31         7.7700    4.0650    0.0510 h1        1 MOL      0.060533
     75 H32         7.6320    2.6570    1.0240 h1        1 MOL      0.060533
     76 N7          4.7680    3.5730    1.0020 n         1 MOL     -0.323487
     77 C25         3.6110    4.1670    1.8160 c3        1 MOL     -0.099042
     78 C26         2.5220    3.1260    1.8440 c         1 MOL      0.629737
     79 O14         2.3250    2.3810    0.9160 o         1 MOL     -0.580317
     80 C27         2.9460    5.3550    1.0820 c3        1 MOL     -0.023395
     81 C28         3.9090    6.5530    0.9580 c3        1 MOL     -0.456437
     82 C29         3.0670    7.7490    0.3940 c         1 MOL      0.687250
     83 N8          3.0360    7.9120   -0.9040 n         1 MOL     -0.814499
     84 O15         2.4260    8.4640    1.1460 o         1 MOL     -0.585117
     85 H33         4.5030    2.8900    0.3080 hn        1 MOL      0.231296
     86 H34         3.9810    4.4280    2.8040 h1        1 MOL      0.099723
     87 H35         2.1050    5.6500    1.7100 hc        1 MOL      0.097038
     88 H36         2.5060    5.0250    0.1360 hc        1 MOL      0.097038
     89 H37         4.6440    6.2450    0.2210 hc        1 MOL      0.162485
     90 H38         4.2970    6.8660    1.9290 hc        1 MOL      0.162485
     91 H39         3.5070    7.1960   -1.4370 hn        1 MOL      0.376177
     92 H40         2.5210    8.6630   -1.3280 hn        1 MOL      0.376177
     93 N9          1.7520    3.1170    2.9680 n         1 MOL     -0.610765
     94 C30         0.4450    2.3350    3.0370 c3        1 MOL      0.044531
     95 C31        -0.7150    2.8820    2.2410 c         1 MOL      0.531176
     96 O16        -0.9350    4.1120    2.1860 o         1 MOL     -0.587317
     97 C32         0.1160    2.3300    4.5870 c3        1 MOL      0.099457
     98 C33        -1.2530    1.7310    4.9260 c3        1 MOL     -0.108297
     99 C34         1.1240    1.4010    5.3590 c3        1 MOL     -0.108297
    100 H41         1.7500    3.9970    3.4550 hn        1 MOL      0.309102
    101 H42         0.8090    1.3410    2.7730 h1        1 MOL      0.160225
    102 H43         0.1850    3.3230    5.0190 hc        1 MOL      0.010000
    103 H44        -1.4390    1.6860    5.9980 hc        1 MOL      0.006428
    104 H45        -2.1150    2.3030    4.5580 hc        1 MOL      0.006428
    105 H46        -1.3670    0.8400    4.2960 hc        1 MOL      0.006428
    106 H47         0.8900    1.4140    6.4270 hc        1 MOL      0.006428
    107 H48         1.0930    0.3530    5.0540 hc        1 MOL      0.006428
    108 H49         2.1160    1.8200    5.2370 hc        1 MOL      0.006428
    109 N10        -1.4530    1.9630    1.5520 n         1 MOL     -0.255974
    110 C35        -2.5780    2.3520    0.6220 c3        1 MOL      0.379076
    111 C36        -3.9150    1.9270    1.2300 c         1 MOL      0.276932
    112 O17        -4.0930    1.1400    2.1720 o         1 MOL     -0.456395
    113 C37        -2.2130    1.8210   -0.7950 c3        1 MOL     -0.331332
    114 C38        -3.4340    1.9250   -1.6910 c         1 MOL      0.671527
    115 N11        -3.7690    3.0650   -2.2110 n         1 MOL     -0.776984
    116 O18        -4.0280    0.9270   -2.0440 o         1 MOL     -0.489838
    117 H50        -1.1290    1.0010    1.5020 hn        1 MOL     -0.032863
    118 H51        -2.6370    3.4350    0.5640 h1        1 MOL     -0.028771
    119 H52        -1.8410    0.7970   -0.7710 hc        1 MOL      0.113770
    120 H53        -1.4170    2.4190   -1.2460 hc        1 MOL      0.113770
    121 H54        -3.2480    3.8970   -1.9910 hn        1 MOL      0.363746
    122 H55        -4.4770    3.0270   -2.9380 hn        1 MOL      0.363746
    123 N12        -5.0060    2.5110    0.7150 n         1 MOL     -0.247652
    124 C39        -6.3940    2.2510    1.0810 c3        1 MOL      0.108801
    125 C40        -6.7900    0.7800    0.9630 c         1 MOL      0.298290
    126 O19        -7.5960    0.3270    1.8030 o         1 MOL     -0.557985
    127 C41        -7.4840    3.1340    0.3860 c3        1 MOL     -0.223793
    128 C42        -7.3750    3.1650   -1.1150 ca        1 MOL      0.180813
    129 C43        -8.0770    2.2520   -1.9350 ca        1 MOL     -0.308860
    130 C44        -6.5950    4.2410   -1.7150 ca        1 MOL     -0.308860
    131 C45        -8.0490    2.3930   -3.2940 ca        1 MOL     -0.209759
    132 C46        -6.5810    4.3500   -3.1240 ca        1 MOL     -0.209759
    133 C47        -7.3590    3.4720   -3.8890 ca        1 MOL      0.383350
    134 O20        -7.4240    3.6330   -5.2280 oh        1 MOL     -0.599915
    135 H56        -4.9460    3.1700   -0.0470 hn        1 MOL      0.114935
    136 H57        -6.5700    2.4610    2.1300 h1        1 MOL      0.052212
    137 H58        -7.4030    4.1760    0.7000 hc        1 MOL      0.079595
    138 H59        -8.5220    2.8750    0.6090 hc        1 MOL      0.079595
    139 H60        -8.7090    1.4890   -1.5010 ha        1 MOL      0.166243
    140 H61        -6.0550    5.0160   -1.1720 ha        1 MOL      0.166243
    141 H62        -8.6530    1.7460   -3.9110 ha        1 MOL      0.129750
    142 H63        -6.0610    5.1760   -3.5830 ha        1 MOL      0.129750
    143 H64        -7.9020    2.9360   -5.6820 ho        1 MOL      0.445782
    144 N13        -6.3550    0.1280   -0.0890 n         1 MOL      0.012794
    145 C48        -6.6280   -1.3220   -0.3310 c3        1 MOL     -0.053317
    146 C49        -5.8110   -2.1660    0.7070 c         1 MOL      0.450894
    147 O21        -6.4160   -2.8920    1.4710 o         1 MOL     -0.535674
    148 C50        -6.3030   -1.5620   -1.8190 c3        1 MOL      0.263474
    149 C51        -7.6200   -1.5080   -2.5790 c3        1 MOL     -0.178914
    150 C52        -7.4200   -1.5100   -4.0460 c         1 MOL      0.659553
    151 O22        -7.0420   -0.4580   -4.6690 o         1 MOL     -0.721721
    152 O23        -7.7200   -2.5600   -4.6120 o         1 MOL     -0.721721
    153 H65        -5.8540    0.6690   -0.7800 hn        1 MOL      0.211664
    154 H66        -7.7160   -1.4500   -0.2420 h1        1 MOL      0.021492
    155 H67        -6.0240   -2.6130   -1.9210 hc        1 MOL     -0.055722
    156 H68        -5.5040   -0.8980   -2.1350 hc        1 MOL     -0.055722
    157 H69        -8.1500   -0.5830   -2.3670 hc        1 MOL      0.022167
    158 H70        -8.2260   -2.3570   -2.2490 hc        1 MOL      0.022167
    159 N14        -4.5450   -1.9430    0.8920 n         1 MOL     -0.239119
    160 C53        -3.7450   -2.4800    1.9960 c3        1 MOL     -0.069408
    161 C54        -4.2620   -2.2700    3.4370 c         1 MOL      0.481714
    162 O24        -4.1080   -3.1730    4.2430 o         1 MOL     -0.589091
    163 C55        -2.2820   -1.8620    1.9220 c3        1 MOL     -0.337738
    164 C56        -1.6660   -2.0540    0.5320 c3        1 MOL      0.432055
    165 C57        -0.2660   -1.4670    0.4680 c         1 MOL      0.396134
    166 O25         0.0530   -0.3960    1.0550 o         1 MOL     -0.578570
    167 O26         0.6410   -2.0080   -0.2050 o         1 MOL     -0.578570
    168 H71        -4.1150   -1.3110    0.2390 hn        1 MOL      0.084800
    169 H72        -3.7160   -3.5650    1.8760 h1        1 MOL      0.098315
    170 H73        -1.6540   -2.2540    2.7250 hc        1 MOL      0.129544
    171 H74        -2.2810   -0.7780    2.0290 hc        1 MOL      0.129544
    172 H75        -2.2840   -1.6530   -0.2650 hc        1 MOL     -0.069341
    173 H76        -1.6270   -3.0970    0.2080 hc        1 MOL     -0.069341
    174 N15        -4.8680   -1.2090    3.8090 n         1 MOL     -0.094143
    175 C58        -5.4840   -0.9810    5.1700 c3        1 MOL     -0.210866
    176 H77        -4.6950   -0.8120    5.9020 h1        1 MOL      0.086455
    177 H78        -6.1370   -0.1100    5.1320 h1        1 MOL      0.086455
    178 H79        -6.0640   -1.8580    5.4570 h1        1 MOL      0.086455
    179 H80        -5.0570   -0.4570    3.1660 hn        1 MOL      0.203623
    180 Ca1         2.5100   -0.1210    0.0820 Ca        1 MOL      1.746539
    181 O27         2.9500   -0.3220    2.9890 oh        1 MOL     -0.861839
    182 H81         3.5520   -0.3990    3.7290 ho        1 MOL      0.423159
    183 H82         2.1210   -0.6660    3.3080 ho        1 MOL      0.423159
    184 O28         5.2100   -0.1390    0.7880 oh        1 MOL     -0.861839
    185 H83         5.7150   -0.0170    1.5890 ho        1 MOL      0.423159
    186 H84         5.3190   -1.0580    0.5620 ho        1 MOL      0.423159
    187 O29         0.8920    1.0620   -1.7730 oh        1 MOL     -0.861839
    188 H85         0.8450    0.3530   -2.4140 ho        1 MOL      0.423159
    189 H86         1.4650    1.7190   -2.1790 ho        1 MOL      0.423159
@<TRIPOS>BOND
     1    1    2 1   
     2    1    4 1   
     3    1    5 1   
     4    1    6 1   
     5    2    3 2   
     6    2    7 1   
     7    7    8 1   
     8    7   15 1   
     9    8    9 1   
    10    8   11 1   
    11    8   16 1   
    12    9   10 2   
    13    9   19 1   
    14   11   12 1   
    15   11   17 1   
    16   11   18 1   
    17   12   13 1   
    18   12   14 1   
    19   19   20 1   
    20   19   27 1   
    21   20   21 1   
    22   20   23 1   
    23   20   28 1   
    24   21   22 2   
    25   21   38 1   
    26   23   24 1   
    27   23   25 1   
    28   23   29 1   
    29   24   26 1   
    30   24   30 1   
    31   24   31 1   
    32   25   32 1   
    33   25   33 1   
    34   25   34 1   
    35   26   35 1   
    36   26   36 1   
    37   26   37 1   
    38   38   39 1   
    39   38   46 1   
    40   39   40 1   
    41   39   42 1   
    42   39   47 1   
    43   40   41 2   
    44   40   50 1   
    45   42   43 1   
    46   42   48 1   
    47   42   49 1   
    48   43   44 1   
    49   43   45 1   
    50   50   51 1   
    51   50   54 1   
    52   51   52 1   
    53   51   55 1   
    54   51   56 1   
    55   52   53 2   
    56   52   57 1   
    57   57   58 1   
    58   57   65 1   
    59   58   59 1   
    60   58   61 1   
    61   58   66 1   
    62   59   60 2   
    63   59   69 1   
    64   61   62 1   
    65   61   67 1   
    66   61   68 1   
    67   62   63 1   
    68   62   64 1   
    69   69   70 1   
    70   69   73 1   
    71   70   71 1   
    72   70   74 1   
    73   70   75 1   
    74   71   72 2   
    75   71   76 1   
    76   76   77 1   
    77   76   85 1   
    78   77   78 1   
    79   77   80 1   
    80   77   86 1   
    81   78   79 2   
    82   78   93 1   
    83   80   81 1   
    84   80   87 1   
    85   80   88 1   
    86   81   82 1   
    87   81   89 1   
    88   81   90 1   
    89   82   83 1   
    90   82   84 2   
    91   83   91 1   
    92   83   92 1   
    93   93   94 1   
    94   93  100 1   
    95   94   95 1   
    96   94   97 1   
    97   94  101 1   
    98   95   96 2   
    99   95  109 1   
   100   97   98 1   
   101   97   99 1   
   102   97  102 1   
   103   98  103 1   
   104   98  104 1   
   105   98  105 1   
   106   99  106 1   
   107   99  107 1   
   108   99  108 1   
   109  109  110 1   
   110  109  117 1   
   111  110  111 1   
   112  110  113 1   
   113  110  118 1   
   114  111  112 2   
   115  111  123 1   
   116  113  114 1   
   117  113  119 1   
   118  113  120 1   
   119  114  115 1   
   120  114  116 2   
   121  115  121 1   
   122  115  122 1   
   123  123  124 1   
   124  123  135 1   
   125  124  125 1   
   126  124  127 1   
   127  124  136 1   
   128  125  126 2   
   129  125  144 1   
   130  127  128 1   
   131  127  137 1   
   132  127  138 1   
   133  128  129 ar  
   134  128  130 ar  
   135  129  131 ar  
   136  129  139 1   
   137  130  132 ar  
   138  130  140 1   
   139  131  133 ar  
   140  131  141 1   
   141  132  133 ar  
   142  132  142 1   
   143  133  134 1   
   144  134  143 1   
   145  144  145 1   
   146  144  153 1   
   147  145  146 1   
   148  145  148 1   
   149  145  154 1   
   150  146  147 2   
   151  146  159 1   
   152  148  149 1   
   153  148  155 1   
   154  148  156 1   
   155  149  150 1   
   156  149  157 1   
   157  149  158 1   
   158  150  151 1   
   159  150  152 1   
   160  159  160 1   
   161  159  168 1   
   162  160  161 1   
   163  160  163 1   
   164  160  169 1   
   165  161  162 2   
   166  161  174 1   
   167  163  164 1   
   168  163  170 1   
   169  163  171 1   
   170  164  165 1   
   171  164  172 1   
   172  164  173 1   
   173  165  166 1   
   174  165  167 1   
   175  174  175 1   
   176  174  179 1   
   177  175  176 1   
   178  175  177 1   
   179  175  178 1   
   180  181  182 1   
   181  181  183 1   
   182  184  185 1   
   183  184  186 1   
   184  187  188 1   
   185  187  189 1   
@<TRIPOS>SUBSTRUCTURE
     1 MOL         1 TEMP              0 ****  ****    0 ROOT
