@<TRIPOS>MOLECULE
MOL
  175   173     1     0     0
SMALL
resp


@<TRIPOS>ATOM
      1 C1          0.2330    5.0260    4.7460 c3        1 MOL     -0.334158
      2 C2         -0.4470    4.6480    3.4010 c         1 MOL      0.762783
      3 O1          0.1900    4.4890    2.4050 o         1 MOL     -0.563674
      4 H1          1.3150    4.9310    4.6440 hc        1 MOL      0.077104
      5 H2         -0.0170    6.0550    5.0040 hc        1 MOL      0.077104
      6 H3         -0.1180    4.3580    5.5320 hc        1 MOL      0.077104
      7 N1         -1.7490    4.3640    3.4230 n         1 MOL     -0.698948
      8 C3         -2.5080    3.8940    2.1830 c3        1 MOL      0.117811
      9 C4         -2.8710    4.9510    1.0920 c         1 MOL      0.665217
     10 O2         -3.2870    6.0370    1.4030 o         1 MOL     -0.599729
     11 C5         -3.7420    3.2060    2.6420 c3        1 MOL     -0.304561
     12 C6         -4.4750    2.2650    1.6450 c         1 MOL      0.792493
     13 O3         -5.5310    1.7060    2.0360 o         1 MOL     -0.706528
     14 O4         -3.9280    1.9590    0.5710 o         1 MOL     -0.706528
     15 H4         -2.3240    4.4920    4.2540 hn        1 MOL      0.347749
     16 H5         -1.9170    3.1080    1.6880 h1        1 MOL      0.138757
     17 H6         -4.4390    3.9580    3.0080 hc        1 MOL      0.052436
     18 H7         -3.4720    2.7510    3.6000 hc        1 MOL      0.052436
     19 N2         -2.7370    4.6190   -0.1750 n         1 MOL     -0.563304
     20 C7         -2.8360    5.4710   -1.3430 c3        1 MOL      0.375226
     21 C8         -3.8240    4.8750   -2.3920 c         1 MOL      0.437872
     22 O5         -4.0160    5.5090   -3.4180 o         1 MOL     -0.570944
     23 C9         -1.4110    5.6280   -1.9460 c3        1 MOL     -0.324409
     24 H8         -2.2200    3.7630   -0.2880 hn        1 MOL      0.234784
     25 H9         -3.2180    6.4530   -1.0690 h1        1 MOL     -0.009568
     26 H10        -1.5200    6.2950   -2.8100 hc        1 MOL      0.083183
     27 H11        -0.6870    6.0720   -1.2760 hc        1 MOL      0.083183
     28 H12        -1.0870    4.6500   -2.3130 hc        1 MOL      0.083183
     29 N3         -4.2910    3.6730   -2.1240 n         1 MOL     -0.485212
     30 C10        -5.0980    2.8830   -3.0640 c3        1 MOL      0.284817
     31 C11        -6.2740    2.1140   -2.4750 c         1 MOL      0.305501
     32 O6         -7.2270    1.8600   -3.2260 o         1 MOL     -0.582697
     33 C12        -4.1000    2.0800   -3.9290 c3        1 MOL     -0.159819
     34 C13        -3.1070    1.2330   -3.1570 c         1 MOL      0.800201
     35 O7         -2.0020    0.9670   -3.6710 o         1 MOL     -0.725662
     36 O8         -3.4490    0.7540   -2.0540 o         1 MOL     -0.725662
     37 H13        -3.9680    3.2260   -1.2880 hn        1 MOL      0.271153
     38 H14        -5.5830    3.5680   -3.7590 h1        1 MOL      0.030051
     39 H15        -3.4840    2.7460   -4.5450 hc        1 MOL      0.022028
     40 H16        -4.6740    1.5130   -4.6610 hc        1 MOL      0.022028
     41 N4         -6.2780    1.7180   -1.2600 n         1 MOL     -0.079106
     42 C14        -7.4040    0.8920   -0.7080 c3        1 MOL     -0.393341
     43 C15        -7.2540   -0.5740   -1.0900 c         1 MOL      0.600118
     44 O9         -8.1570   -1.3070   -0.6980 o         1 MOL     -0.608552
     45 H17        -5.4610    1.9110   -0.6960 hn        1 MOL      0.103773
     46 H18        -8.3160    1.2790   -1.1700 h1        1 MOL      0.177225
     47 H19        -7.4870    1.1840    0.3350 h1        1 MOL      0.177225
     48 N5         -6.1330   -1.0590   -1.6790 n         1 MOL     -0.299417
     49 C16        -5.9240   -2.4200   -2.1670 c3        1 MOL      0.068041
     50 C17        -5.8020   -3.5220   -1.0800 c         1 MOL      0.377228
     51 O10        -5.3630   -4.5700   -1.4740 o         1 MOL     -0.504040
     52 C18        -4.6920   -2.4360   -3.0980 c3        1 MOL     -0.218481
     53 C19        -3.3030   -2.5100   -2.4470 c         1 MOL      0.465011
     54 N6         -2.2600   -2.7250   -3.1680 n         1 MOL     -0.502687
     55 O11        -3.2700   -2.3530   -1.2670 o         1 MOL     -0.394072
     56 H20        -5.2790   -0.5190   -1.7340 hn        1 MOL      0.221110
     57 H21        -6.8550   -2.6380   -2.6900 h1        1 MOL      0.078129
     58 H22        -4.7280   -1.5070   -3.6610 hc        1 MOL      0.052474
     59 H23        -4.8180   -3.3080   -3.7470 hc        1 MOL      0.052474
     60 H24        -2.3900   -2.9220   -4.1450 hn        1 MOL      0.289568
     61 H25        -1.3920   -3.0250   -2.7510 hn        1 MOL      0.289568
     62 N7         -6.1090   -3.3110    0.1840 n         1 MOL     -0.216631
     63 C20        -6.1330   -4.3590    1.1630 c3        1 MOL     -0.164968
     64 C21        -4.7670   -4.7990    1.7480 c         1 MOL      0.476853
     65 O12        -4.8110   -5.5520    2.6990 o         1 MOL     -0.558336
     66 H26        -6.4660   -2.3800    0.3520 hn        1 MOL      0.236139
     67 H27        -6.6020   -5.2600    0.7580 h1        1 MOL      0.102362
     68 H28        -6.8280   -4.0760    1.9420 h1        1 MOL      0.102362
     69 N8         -3.6060   -4.2920    1.2110 n         1 MOL     -0.194094
     70 C22        -2.2750   -4.5460    1.8330 c3        1 MOL     -0.096339
     71 C23        -1.3960   -3.3300    1.8430 c         1 MOL      0.546204
     72 O13        -1.5350   -2.4910    0.9680 o         1 MOL     -0.654360
     73 C24        -1.5060   -5.5340    0.9980 c3        1 MOL      0.486112
     74 C25        -2.1280   -6.9050    1.0780 c3        1 MOL     -0.393178
     75 O14        -1.3370   -5.1850   -0.4070 oh        1 MOL     -0.637021
     76 H29        -3.6920   -3.5870    0.4870 hn        1 MOL      0.174475
     77 H30        -2.2880   -4.9630    2.8430 h1        1 MOL      0.064283
     78 H31        -0.4900   -5.7100    1.3500 h1        1 MOL     -0.020466
     79 H32        -0.7350   -4.4640   -0.5860 ho        1 MOL      0.408325
     80 H33        -2.0510   -7.3100    2.0920 hc        1 MOL      0.092671
     81 H34        -3.1660   -6.8200    0.7350 hc        1 MOL      0.092671
     82 H35        -1.5550   -7.5520    0.4210 hc        1 MOL      0.092671
     83 N9         -0.4150   -3.2420    2.7140 n         1 MOL     -0.557370
     84 C26         0.7100   -2.3920    2.5720 c3        1 MOL      0.135515
     85 C27         1.6510   -2.8480    1.4410 c         1 MOL      0.346140
     86 O15         2.0080   -4.0320    1.3970 o         1 MOL     -0.561321
     87 C28         1.4690   -2.0770    3.8880 c3        1 MOL     -0.065239
     88 C29         0.7570   -0.8800    4.6270 c3        1 MOL      0.020081
     89 C30         2.9970   -1.7660    3.6590 c3        1 MOL     -0.064003
     90 C31         1.3390   -0.5000    5.9490 c3        1 MOL      0.021785
     91 H36        -0.2660   -4.0710    3.2860 hn        1 MOL      0.288207
     92 H37         0.2670   -1.4710    2.1940 h1        1 MOL      0.037737
     93 H38         1.5050   -2.9890    4.4760 hc        1 MOL      0.040740
     94 H39        -0.3150   -1.0680    4.6700 hc        1 MOL      0.004584
     95 H40         0.8560   -0.0160    3.9770 hc        1 MOL      0.004584
     96 H41         3.2570   -0.9670    2.9540 hc        1 MOL      0.010550
     97 H42         3.3860   -1.6950    4.6660 hc        1 MOL      0.010550
     98 H43         3.6210   -2.5920    3.3270 hc        1 MOL      0.010550
     99 H44         2.3670   -0.1380    5.8980 hc        1 MOL     -0.014208
    100 H45         0.6950    0.2800    6.3410 hc        1 MOL     -0.014208
    101 H46         1.2630   -1.2910    6.7030 hc        1 MOL     -0.014208
    102 N10         1.9350   -1.9290    0.5790 n         1 MOL      0.012395
    103 C32         2.7940   -2.1140   -0.5390 c3        1 MOL     -0.000278
    104 C33         4.1880   -1.5550   -0.2960 c         1 MOL      0.356403
    105 O16         4.4580   -0.7800    0.6210 o         1 MOL     -0.303893
    106 C34         2.1110   -1.4970   -1.7890 c3        1 MOL     -0.333971
    107 C35         0.6780   -1.8380   -1.8380 c         1 MOL      0.833033
    108 O17        -0.2260   -0.9600   -1.7120 o         1 MOL     -0.721131
    109 O18         0.4120   -3.0590   -2.0050 o         1 MOL     -0.721131
    110 H47         1.5420   -1.0090    0.7220 hn        1 MOL      0.175802
    111 H48         2.8940   -3.1910   -0.6240 h1        1 MOL      0.059056
    112 H49         2.6480   -1.7720   -2.6970 hc        1 MOL      0.074746
    113 H50         2.2600   -0.4300   -1.9060 hc        1 MOL      0.074746
    114 N11         5.1190   -1.9320   -1.1740 n         1 MOL     -0.405088
    115 C36         6.5000   -1.5340   -1.0150 c3        1 MOL      0.066018
    116 C37         6.7830   -0.0360   -0.7230 c         1 MOL      0.331519
    117 O19         7.3810    0.3170    0.3240 o         1 MOL     -0.527430
    118 C38         7.2430   -2.0870   -2.2790 c3        1 MOL     -0.081363
    119 C39         8.7360   -1.8440   -2.4220 ca        1 MOL      0.108612
    120 C40         9.5940   -2.8980   -2.0350 ca        1 MOL     -0.185720
    121 C41         9.3740   -0.7160   -2.9860 ca        1 MOL     -0.185720
    122 C42        10.9950   -2.8640   -2.1710 ca        1 MOL     -0.053051
    123 C43        10.7280   -0.6610   -3.2060 ca        1 MOL     -0.053051
    124 C44        11.5560   -1.7560   -2.7790 ca        1 MOL     -0.183308
    125 H51         4.7800   -2.4760   -1.9560 hn        1 MOL      0.284666
    126 H52         6.8870   -2.1470   -0.1930 h1        1 MOL      0.088846
    127 H53         6.8040   -1.6600   -3.1750 hc        1 MOL      0.044080
    128 H54         7.1600   -3.1680   -2.4490 hc        1 MOL      0.044080
    129 H55         9.1600   -3.7310   -1.5070 ha        1 MOL      0.106465
    130 H56         8.6660    0.0690   -3.1990 ha        1 MOL      0.106465
    131 H57        11.5720   -3.7540   -1.9790 ha        1 MOL      0.097598
    132 H58        11.0650    0.2130   -3.7420 ha        1 MOL      0.097598
    133 H59        12.6210   -1.6410   -2.8760 ha        1 MOL      0.115884
    134 N12         6.4120    0.9230   -1.5470 n         1 MOL      0.042745
    135 C45         6.7230    2.3100   -1.2350 c3        1 MOL     -0.037290
    136 C46         5.9470    2.8330   -0.0060 c         1 MOL      0.368735
    137 O20         6.4430    3.7750    0.6550 o         1 MOL     -0.505887
    138 C47         6.3410    3.0740   -2.4870 c3        1 MOL     -0.199954
    139 C48         5.1210    2.3570   -3.0110 c3        1 MOL      0.033053
    140 C49         5.4770    0.8650   -2.6940 c3        1 MOL     -0.100185
    141 H60         7.7880    2.4340   -1.0340 h1        1 MOL      0.089954
    142 H61         6.2310    4.1280   -2.2230 hc        1 MOL      0.079952
    143 H62         7.1170    2.9470   -3.2440 hc        1 MOL      0.079952
    144 H63         4.2120    2.5260   -2.4390 hc        1 MOL      0.026983
    145 H64         4.9670    2.5670   -4.0690 hc        1 MOL      0.026983
    146 H65         4.5550    0.3420   -2.4530 h1        1 MOL      0.043102
    147 H66         5.9090    0.3450   -3.5420 h1        1 MOL      0.043102
    148 N13         4.7250    2.3720    0.2870 n         1 MOL     -0.120091
    149 C50         3.9650    2.5750    1.5030 c3        1 MOL     -0.238293
    150 C51         4.7270    2.0630    2.7740 c         1 MOL      0.451763
    151 O21         4.7660    2.6800    3.8190 o         1 MOL     -0.543651
    152 C52         2.5920    1.9950    1.5360 c3        1 MOL     -0.006161
    153 C53         1.6820    2.4680    0.3790 c3        1 MOL     -0.024479
    154 C54         0.3650    1.6030    0.3070 c         1 MOL      0.490862
    155 O22         0.2790    0.4720    0.8670 o         1 MOL     -0.631562
    156 O23        -0.6280    2.0240   -0.2900 o         1 MOL     -0.631562
    157 H67         4.3030    1.6500   -0.2830 hn        1 MOL      0.215393
    158 H68         3.9690    3.6680    1.6270 h1        1 MOL      0.126112
    159 H69         2.1060    2.1390    2.4950 hc        1 MOL      0.042444
    160 H70         2.7660    0.9180    1.4190 hc        1 MOL      0.042444
    161 H71         2.2480    2.4380   -0.5570 hc        1 MOL      0.032113
    162 H72         1.4060    3.5220    0.4340 hc        1 MOL      0.032113
    163 N14         5.3980    0.8850    2.6880 n         1 MOL      0.007397
    164 C55         6.3050    0.3530    3.7550 c3        1 MOL     -0.310928
    165 H73         7.0500    1.1080    4.0080 h1        1 MOL      0.103831
    166 H74         5.7200    0.1100    4.6420 h1        1 MOL      0.103831
    167 H75         6.8060   -0.5440    3.3920 h1        1 MOL      0.103831
    168 H76         5.4050    0.3460    1.8370 hn        1 MOL      0.076619
    169 Ca1        -2.0340   -0.1440   -0.1120 Ca        1 MOL      1.678919
    170 O24        -4.4840   -0.7530    0.9530 oh        1 MOL     -0.692779
    171 H77        -4.6450   -1.2930    1.7310 ho        1 MOL      0.351310
    172 H78        -4.7330    0.1330    1.2150 ho        1 MOL      0.351310
    173 O25        -2.1540    0.1710    2.5680 oh        1 MOL     -0.692779
    174 H79        -2.5940    0.1270    3.4240 ho        1 MOL      0.351310
    175 H80        -1.3460    0.6480    2.7400 ho        1 MOL      0.351310
@<TRIPOS>BOND
     1    1    2 1   
     2    1    4 1   
     3    1    5 1   
     4    1    6 1   
     5    2    3 2   
     6    2    7 1   
     7    7    8 1   
     8    7   15 1   
     9    8    9 1   
    10    8   11 1   
    11    8   16 1   
    12    9   10 2   
    13    9   19 1   
    14   11   12 1   
    15   11   17 1   
    16   11   18 1   
    17   12   13 1   
    18   12   14 1   
    19   19   20 1   
    20   19   24 1   
    21   20   21 1   
    22   20   23 1   
    23   20   25 1   
    24   21   22 2   
    25   21   29 1   
    26   23   26 1   
    27   23   27 1   
    28   23   28 1   
    29   29   30 1   
    30   29   37 1   
    31   30   31 1   
    32   30   33 1   
    33   30   38 1   
    34   31   32 2   
    35   31   41 1   
    36   33   34 1   
    37   33   39 1   
    38   33   40 1   
    39   34   35 1   
    40   34   36 1   
    41   41   42 1   
    42   41   45 1   
    43   42   43 1   
    44   42   46 1   
    45   42   47 1   
    46   43   44 2   
    47   43   48 1   
    48   48   49 1   
    49   48   56 1   
    50   49   50 1   
    51   49   52 1   
    52   49   57 1   
    53   50   51 2   
    54   50   62 1   
    55   52   53 1   
    56   52   58 1   
    57   52   59 1   
    58   53   54 1   
    59   53   55 2   
    60   54   60 1   
    61   54   61 1   
    62   62   63 1   
    63   62   66 1   
    64   63   64 1   
    65   63   67 1   
    66   63   68 1   
    67   64   65 2   
    68   64   69 1   
    69   69   70 1   
    70   69   76 1   
    71   70   71 1   
    72   70   73 1   
    73   70   77 1   
    74   71   72 2   
    75   71   83 1   
    76   73   74 1   
    77   73   75 1   
    78   73   78 1   
    79   74   80 1   
    80   74   81 1   
    81   74   82 1   
    82   75   79 1   
    83   83   84 1   
    84   83   91 1   
    85   84   85 1   
    86   84   87 1   
    87   84   92 1   
    88   85   86 2   
    89   85  102 1   
    90   87   88 1   
    91   87   89 1   
    92   87   93 1   
    93   88   90 1   
    94   88   94 1   
    95   88   95 1   
    96   89   96 1   
    97   89   97 1   
    98   89   98 1   
    99   90   99 1   
   100   90  100 1   
   101   90  101 1   
   102  102  103 1   
   103  102  110 1   
   104  103  104 1   
   105  103  106 1   
   106  103  111 1   
   107  104  105 2   
   108  104  114 1   
   109  106  107 1   
   110  106  112 1   
   111  106  113 1   
   112  107  108 1   
   113  107  109 1   
   114  114  115 1   
   115  114  125 1   
   116  115  116 1   
   117  115  118 1   
   118  115  126 1   
   119  116  117 2   
   120  116  134 1   
   121  118  119 1   
   122  118  127 1   
   123  118  128 1   
   124  119  120 ar  
   125  119  121 ar  
   126  120  122 ar  
   127  120  129 1   
   128  121  123 ar  
   129  121  130 1   
   130  122  124 ar  
   131  122  131 1   
   132  123  124 ar  
   133  123  132 1   
   134  124  133 1   
   135  134  135 1   
   136  134  140 1   
   137  135  136 1   
   138  135  138 1   
   139  135  141 1   
   140  136  137 2   
   141  136  148 1   
   142  138  139 1   
   143  138  142 1   
   144  138  143 1   
   145  139  140 1   
   146  139  144 1   
   147  139  145 1   
   148  140  146 1   
   149  140  147 1   
   150  148  149 1   
   151  148  157 1   
   152  149  150 1   
   153  149  152 1   
   154  149  158 1   
   155  150  151 2   
   156  150  163 1   
   157  152  153 1   
   158  152  159 1   
   159  152  160 1   
   160  153  154 1   
   161  153  161 1   
   162  153  162 1   
   163  154  155 1   
   164  154  156 1   
   165  163  164 1   
   166  163  168 1   
   167  164  165 1   
   168  164  166 1   
   169  164  167 1   
   170  170  171 1   
   171  170  172 1   
   172  173  174 1   
   173  173  175 1   
@<TRIPOS>SUBSTRUCTURE
     1 MOL         1 TEMP              0 ****  ****    0 ROOT
