@<TRIPOS>MOLECULE
MOL
  179   176     1     0     0
SMALL
resp


@<TRIPOS>ATOM
      1 C1         -0.0100    4.7570    5.0740 c3        1 MOL     -0.452839
      2 C2         -0.1940    3.9760    3.7460 c         1 MOL      0.630924
      3 O1          0.7890    3.8900    2.9500 o         1 MOL     -0.548779
      4 H1         -0.2030    5.8160    4.9020 hc        1 MOL      0.124396
      5 H2         -0.7100    4.3770    5.8190 hc        1 MOL      0.124396
      6 H3          1.0100    4.6270    5.4340 hc        1 MOL      0.124396
      7 N1         -1.4320    3.6370    3.2850 n         1 MOL     -0.535074
      8 C3         -1.7050    3.0610    2.0020 c3        1 MOL      0.093043
      9 C4         -2.1390    4.2640    1.1350 c         1 MOL      0.379421
     10 O2         -3.3440    4.5840    1.0940 o         1 MOL     -0.455893
     11 C5         -2.7480    1.9180    2.0480 c3        1 MOL     -0.215216
     12 C6         -2.8060    1.1780    0.6750 c         1 MOL      0.603500
     13 O3         -2.2010    1.7390   -0.2750 o         1 MOL     -0.638656
     14 O4         -3.3620    0.0840    0.5300 o         1 MOL     -0.638656
     15 H4         -2.2330    3.6590    3.9140 hn        1 MOL      0.318675
     16 H5         -0.7700    2.7690    1.5150 h1        1 MOL      0.081534
     17 H6         -3.7150    2.3930    2.2280 hc        1 MOL      0.086180
     18 H7         -2.4910    1.1300    2.7570 hc        1 MOL      0.086180
     19 N2         -1.2040    4.8090    0.2910 n         1 MOL     -0.187358
     20 C7         -1.5600    5.9250   -0.5870 c3        1 MOL     -0.162953
     21 C8         -2.5220    5.6060   -1.6920 c         1 MOL      0.529586
     22 O5         -2.9230    6.4920   -2.4160 o         1 MOL     -0.582472
     23 C9         -0.2890    6.6160   -1.1560 c3        1 MOL     -0.073687
     24 C10         0.8480    6.9340   -0.1730 c3        1 MOL      0.037488
     25 C11         0.5300    7.7040    1.1360 c3        1 MOL     -0.326199
     26 C12         1.7810    7.6220    2.0730 c3        1 MOL      0.112019
     27 N3          1.3830    8.3710    3.3240 n4        1 MOL     -0.353497
     28 H8         -0.2590    4.5000    0.4420 hn        1 MOL      0.278031
     29 H9         -2.1600    6.6020    0.0180 h1        1 MOL      0.097564
     30 H10        -0.5180    7.5390   -1.6870 hc        1 MOL      0.083211
     31 H11         0.1180    6.0350   -1.9900 hc        1 MOL      0.083211
     32 H12         1.6120    7.4060   -0.7970 hc        1 MOL      0.034723
     33 H13         1.2380    5.9800    0.1450 hc        1 MOL      0.034723
     34 H14        -0.3700    7.2440    1.5540 hc        1 MOL      0.110608
     35 H15         0.4350    8.7320    0.7900 hc        1 MOL      0.110608
     36 H16         2.6630    8.1110    1.6580 hx        1 MOL      0.090951
     37 H17         1.9790    6.5660    2.2210 hx        1 MOL      0.090951
     38 H18         0.5380    8.0320    3.7520 hn        1 MOL      0.317312
     39 H19         2.0660    8.2890    4.0610 hn        1 MOL      0.317312
     40 H20         1.1940    9.3420    3.1400 hn        1 MOL      0.317312
     41 N4         -2.8550    4.3420   -1.9450 n         1 MOL     -0.224055
     42 C13        -3.8930    4.0130   -2.9550 c3        1 MOL      0.269162
     43 C14        -5.0430    3.2990   -2.2210 c         1 MOL      0.231600
     44 O6         -6.0500    2.9980   -2.8950 o         1 MOL     -0.504709
     45 C15        -3.2430    3.2410   -4.0560 c3        1 MOL     -0.359162
     46 C16        -2.6820    1.9100   -3.4910 c         1 MOL      0.914935
     47 O7         -3.4360    1.0160   -3.1850 o         1 MOL     -0.755211
     48 O8         -1.4350    1.7690   -3.3740 o         1 MOL     -0.755211
     49 H21        -2.5350    3.6130   -1.3300 hn        1 MOL      0.037140
     50 H22        -4.3720    4.9000   -3.3780 h1        1 MOL      0.081050
     51 H23        -2.4090    3.7910   -4.4820 hc        1 MOL      0.069233
     52 H24        -3.9840    3.0360   -4.8390 hc        1 MOL      0.069233
     53 N5         -4.9380    3.0370   -0.8800 n         1 MOL      0.025991
     54 C17        -6.0170    2.5160   -0.0480 c3        1 MOL     -0.219187
     55 C18        -6.4970    1.0790   -0.0310 c         1 MOL      0.565688
     56 O9         -7.1480    0.6790    0.9320 o         1 MOL     -0.624392
     57 H25        -4.1470    3.3170   -0.3340 hn        1 MOL      0.000455
     58 H26        -6.8630    3.1530   -0.2760 h1        1 MOL      0.107782
     59 H27        -5.7820    2.7750    0.9860 h1        1 MOL      0.107782
     60 N6         -6.0440    0.2370   -0.8900 n         1 MOL     -0.390441
     61 C19        -6.5360   -1.1310   -1.0940 c3        1 MOL      0.189976
     62 C20        -6.3360   -2.1940    0.1570 c         1 MOL      0.095917
     63 O10        -6.7900   -3.3190    0.1460 o         1 MOL     -0.397075
     64 C21        -6.0860   -1.7500   -2.4230 c3        1 MOL     -0.453492
     65 C22        -4.7030   -2.4180   -2.4260 c         1 MOL      0.891361
     66 N7         -4.5800   -3.4740   -3.1900 n         1 MOL     -0.792487
     67 O11        -3.7490   -1.9680   -1.9040 o         1 MOL     -0.751311
     68 H28        -5.3390    0.6490   -1.4870 hn        1 MOL      0.297210
     69 H29        -7.6180   -1.0510   -1.1740 h1        1 MOL      0.104948
     70 H30        -6.0690   -0.9970   -3.2150 hc        1 MOL      0.128223
     71 H31        -6.8330   -2.5360   -2.5410 hc        1 MOL      0.128223
     72 H32        -5.4210   -3.9640   -3.4630 hn        1 MOL      0.366223
     73 H33        -3.6260   -3.7830   -3.3070 hn        1 MOL      0.366223
     74 N8         -5.6730   -1.7490    1.2390 n         1 MOL      0.167141
     75 C23        -5.4980   -2.2670    2.5780 c3        1 MOL     -0.329821
     76 C24        -4.1260   -2.9810    2.8230 c         1 MOL      0.676386
     77 O12        -3.9780   -3.7360    3.8190 o         1 MOL     -0.565544
     78 H34        -5.2560   -0.8310    1.1510 hn        1 MOL      0.187190
     79 H35        -6.3260   -2.9410    2.7800 h1        1 MOL      0.116421
     80 H36        -5.5030   -1.4220    3.2660 h1        1 MOL      0.116421
     81 N9         -3.1430   -2.7050    1.9100 n         1 MOL     -0.558146
     82 C25        -1.8640   -3.3020    1.8170 c3        1 MOL      0.381602
     83 C26        -0.6580   -2.3960    1.4920 c         1 MOL      0.265761
     84 O13        -0.7840   -1.4640    0.6450 o         1 MOL     -0.540281
     85 C27        -1.8890   -4.3950    0.7060 c3        1 MOL     -0.044592
     86 C28        -2.8560   -5.5190    0.7950 ca        1 MOL      0.222244
     87 C29        -4.2040   -5.3590    0.4770 ca        1 MOL     -0.361354
     88 C30        -2.3320   -6.7910    1.1550 ca        1 MOL     -0.361354
     89 C31        -5.1430   -6.3900    0.6070 ca        1 MOL     -0.085835
     90 C32        -3.2960   -7.8270    1.2620 ca        1 MOL     -0.085835
     91 C33        -4.6890   -7.6820    1.0080 ca        1 MOL      0.203196
     92 O14        -5.5660   -8.6960    0.9870 oh        1 MOL     -0.428077
     93 H37        -3.1620   -1.8850    1.3240 hn        1 MOL      0.252053
     94 H38        -1.6120   -3.7690    2.7640 h1        1 MOL     -0.031292
     95 H39        -0.8740   -4.7860    0.5680 hc        1 MOL     -0.002801
     96 H40        -2.1450   -3.8090   -0.1790 hc        1 MOL     -0.002801
     97 H41        -4.5060   -4.4130    0.0540 ha        1 MOL      0.169877
     98 H42        -1.2650   -6.9040    1.2630 ha        1 MOL      0.169877
     99 H43        -6.1660   -6.2620    0.2800 ha        1 MOL      0.091990
    100 H44        -2.9580   -8.8320    1.4640 ha        1 MOL      0.091990
    101 H45        -5.1650   -9.5170    1.2750 ho        1 MOL      0.341290
    102 N10         0.5040   -2.6650    2.0360 n         1 MOL     -0.295002
    103 C34         1.7220   -1.9320    1.5310 c3        1 MOL     -0.072913
    104 C35         2.8850   -2.9130    1.1840 c         1 MOL      0.566127
    105 O15         3.1300   -3.8050    1.9600 o         1 MOL     -0.545757
    106 C36         2.1630   -0.8660    2.5480 c3        1 MOL     -0.025737
    107 C37         2.2140   -1.3350    4.0300 c3        1 MOL     -0.013274
    108 C38         1.2840    0.4110    2.3690 c3        1 MOL     -0.448528
    109 C39         2.5440   -0.2460    4.9810 c3        1 MOL     -0.155974
    110 H46         0.5840   -3.3700    2.7550 hn        1 MOL      0.265655
    111 H47         1.5290   -1.4350    0.5800 h1        1 MOL      0.138114
    112 H48         3.2050   -0.6180    2.3250 hc        1 MOL      0.051944
    113 H49         2.9710   -2.1070    4.1420 hc        1 MOL      0.041194
    114 H50         1.2510   -1.6540    4.4240 hc        1 MOL      0.041194
    115 H51         0.2920    0.1700    2.7690 hc        1 MOL      0.149502
    116 H52         1.5940    1.2870    2.9380 hc        1 MOL      0.149502
    117 H53         1.2760    0.7590    1.3430 hc        1 MOL      0.149502
    118 H54         1.7840    0.5250    4.8560 hc        1 MOL      0.037645
    119 H55         2.4670   -0.6040    6.0030 hc        1 MOL      0.037645
    120 H56         3.5530    0.1340    4.8950 hc        1 MOL      0.037645
    121 N11         3.4050   -2.7530   -0.0570 n         1 MOL     -0.445890
    122 C40         4.5170   -3.5140   -0.6630 c3        1 MOL      0.141695
    123 C41         5.8610   -3.1190   -0.1310 c         1 MOL      0.334527
    124 O16         5.9600   -2.1470    0.5890 o         1 MOL     -0.303489
    125 C42         4.5220   -3.3620   -2.1550 c3        1 MOL     -0.330260
    126 O17         5.1200   -2.1390   -2.4830 oh        1 MOL     -0.285385
    127 H57         3.0260   -2.0700   -0.6980 hn        1 MOL      0.331567
    128 H58         4.4010   -4.5880   -0.5280 h1        1 MOL      0.063586
    129 H59         3.4790   -3.4020   -2.4920 h1        1 MOL      0.139789
    130 H60         5.1610   -4.1620   -2.5310 h1        1 MOL      0.139789
    131 H61         5.1960   -2.0970   -3.4400 ho        1 MOL      0.355651
    132 N12         6.9730   -3.7880   -0.5570 n         1 MOL     -0.432676
    133 C43         8.3320   -3.2010   -0.2280 c3        1 MOL      0.139511
    134 C44         8.6140   -1.7880   -0.7760 c         1 MOL      0.450040
    135 O18         9.3610   -1.0090   -0.1350 o         1 MOL     -0.505580
    136 C45         9.3070   -4.2160   -0.7190 c3        1 MOL     -0.129592
    137 H62         6.9030   -4.6440   -1.0910 hn        1 MOL      0.292284
    138 H63         8.4110   -3.1870    0.8590 h1        1 MOL      0.065803
    139 H64         9.3520   -4.0940   -1.8030 hc        1 MOL      0.040589
    140 H65        10.3260   -4.0060   -0.3970 hc        1 MOL      0.040589
    141 H66         9.0570   -5.2470   -0.5050 hc        1 MOL      0.040589
    142 N13         8.0330   -1.4460   -1.9780 n         1 MOL     -0.370508
    143 C46         8.2420   -0.0630   -2.4820 c3        1 MOL      0.195366
    144 C47         7.3920    0.9430   -1.6510 c         1 MOL      0.302424
    145 O19         7.9350    1.9930   -1.3310 o         1 MOL     -0.514243
    146 C48         7.8040   -0.0390   -3.9700 c3        1 MOL     -0.394316
    147 H67         7.4360   -2.0990   -2.4680 hn        1 MOL      0.207950
    148 H68         9.3150    0.1070   -2.4240 h1        1 MOL      0.088541
    149 H69         6.7460   -0.2670   -4.0820 hc        1 MOL      0.107604
    150 H70         8.0950    0.9540   -4.3270 hc        1 MOL      0.107604
    151 H71         8.4800   -0.7310   -4.4710 hc        1 MOL      0.107604
    152 N14         6.1670    0.6120   -1.2340 n         1 MOL      0.026911
    153 C49         5.3500    1.4540   -0.3980 c3        1 MOL     -0.074050
    154 C50         5.7440    1.5890    1.0220 c         1 MOL      0.417699
    155 O20         5.4320    2.6310    1.6340 o         1 MOL     -0.570452
    156 C51         3.9140    0.9280   -0.4580 c3        1 MOL      0.116765
    157 C52         3.2080    0.8780   -1.8450 c3        1 MOL     -0.370238
    158 C53         1.8870    0.1140   -1.7360 c         1 MOL      0.929374
    159 O21         0.7840    0.6760   -1.4920 o         1 MOL     -0.771814
    160 O22         1.8690   -1.1400   -1.7470 o         1 MOL     -0.771814
    161 H72         5.9160   -0.3650   -1.3820 hn        1 MOL     -0.056520
    162 H73         5.3500    2.4740   -0.7620 h1        1 MOL      0.101993
    163 H74         3.3290    1.6210    0.1500 hc        1 MOL      0.013065
    164 H75         3.9190   -0.0560    0.0140 hc        1 MOL      0.013065
    165 H76         3.7900    0.2610   -2.5280 hc        1 MOL      0.064682
    166 H77         2.9940    1.9070   -2.1350 hc        1 MOL      0.064682
    167 N15         6.5250    0.6080    1.5400 n         1 MOL      0.031374
    168 C54         7.2070    0.7600    2.8190 c3        1 MOL     -0.365200
    169 H78         6.9710    1.7360    3.2430 h1        1 MOL      0.127077
    170 H79         6.8760   -0.0210    3.5030 h1        1 MOL      0.127077
    171 H80         8.2840    0.6810    2.6690 h1        1 MOL      0.127077
    172 H81         6.4020   -0.3090    1.1180 hn        1 MOL      0.055400
    173 Ca1        -1.7130   -0.2940   -1.5880 Ca        1 MOL      1.738287
    174 O23        -0.2450   -2.4720   -1.8700 oh        1 MOL     -0.804683
    175 H82        -0.0170   -3.3940   -1.7650 ho        1 MOL      0.385244
    176 H83         0.5520   -2.0000   -1.6140 ho        1 MOL      0.385244
    177 O24        -1.0320   -1.1020   -4.1370 oh        1 MOL     -0.804683
    178 H84        -1.3560   -1.1000   -5.0380 ho        1 MOL      0.385244
    179 H85        -0.5300   -1.9210   -4.0690 ho        1 MOL      0.385244
@<TRIPOS>BOND
     1    1    2 1   
     2    1    4 1   
     3    1    5 1   
     4    1    6 1   
     5    2    3 2   
     6    2    7 1   
     7    7    8 1   
     8    7   15 1   
     9    8    9 1   
    10    8   11 1   
    11    8   16 1   
    12    9   10 2   
    13    9   19 1   
    14   11   12 1   
    15   11   17 1   
    16   11   18 1   
    17   12   13 1   
    18   12   14 1   
    19   19   20 1   
    20   19   28 1   
    21   20   21 1   
    22   20   23 1   
    23   20   29 1   
    24   21   22 2   
    25   21   41 1   
    26   23   24 1   
    27   23   30 1   
    28   23   31 1   
    29   24   25 1   
    30   24   32 1   
    31   24   33 1   
    32   25   26 1   
    33   25   34 1   
    34   25   35 1   
    35   26   27 1   
    36   26   36 1   
    37   26   37 1   
    38   27   38 1   
    39   27   39 1   
    40   27   40 1   
    41   41   42 1   
    42   41   49 1   
    43   42   43 1   
    44   42   45 1   
    45   42   50 1   
    46   43   44 2   
    47   43   53 1   
    48   45   46 1   
    49   45   51 1   
    50   45   52 1   
    51   46   47 1   
    52   46   48 1   
    53   53   54 1   
    54   53   57 1   
    55   54   55 1   
    56   54   58 1   
    57   54   59 1   
    58   55   56 2   
    59   55   60 1   
    60   60   61 1   
    61   60   68 1   
    62   61   62 1   
    63   61   64 1   
    64   61   69 1   
    65   62   63 2   
    66   62   74 1   
    67   64   65 1   
    68   64   70 1   
    69   64   71 1   
    70   65   66 1   
    71   65   67 2   
    72   66   72 1   
    73   66   73 1   
    74   74   75 1   
    75   74   78 1   
    76   75   76 1   
    77   75   79 1   
    78   75   80 1   
    79   76   77 2   
    80   76   81 1   
    81   81   82 1   
    82   81   93 1   
    83   82   83 1   
    84   82   85 1   
    85   82   94 1   
    86   83   84 2   
    87   83  102 1   
    88   85   86 1   
    89   85   95 1   
    90   85   96 1   
    91   86   87 ar  
    92   86   88 ar  
    93   87   89 ar  
    94   87   97 1   
    95   88   90 ar  
    96   88   98 1   
    97   89   91 ar  
    98   89   99 1   
    99   90   91 ar  
   100   90  100 1   
   101   91   92 1   
   102   92  101 1   
   103  102  103 1   
   104  102  110 1   
   105  103  104 1   
   106  103  106 1   
   107  103  111 1   
   108  104  105 2   
   109  104  121 1   
   110  106  107 1   
   111  106  108 1   
   112  106  112 1   
   113  107  109 1   
   114  107  113 1   
   115  107  114 1   
   116  108  115 1   
   117  108  116 1   
   118  108  117 1   
   119  109  118 1   
   120  109  119 1   
   121  109  120 1   
   122  121  122 1   
   123  121  127 1   
   124  122  123 1   
   125  122  125 1   
   126  122  128 1   
   127  123  124 2   
   128  123  132 1   
   129  125  126 1   
   130  125  129 1   
   131  125  130 1   
   132  126  131 1   
   133  132  133 1   
   134  132  137 1   
   135  133  134 1   
   136  133  136 1   
   137  133  138 1   
   138  134  135 2   
   139  134  142 1   
   140  136  139 1   
   141  136  140 1   
   142  136  141 1   
   143  142  143 1   
   144  142  147 1   
   145  143  144 1   
   146  143  146 1   
   147  143  148 1   
   148  144  145 2   
   149  144  152 1   
   150  146  149 1   
   151  146  150 1   
   152  146  151 1   
   153  152  153 1   
   154  152  161 1   
   155  153  154 1   
   156  153  156 1   
   157  153  162 1   
   158  154  155 2   
   159  154  167 1   
   160  156  157 1   
   161  156  163 1   
   162  156  164 1   
   163  157  158 1   
   164  157  165 1   
   165  157  166 1   
   166  158  159 1   
   167  158  160 1   
   168  167  168 1   
   169  167  172 1   
   170  168  169 1   
   171  168  170 1   
   172  168  171 1   
   173  174  175 1   
   174  174  176 1   
   175  177  178 1   
   176  177  179 1   
@<TRIPOS>SUBSTRUCTURE
     1 MOL         1 TEMP              0 ****  ****    0 ROOT
