@<TRIPOS>MOLECULE
MOL
  189   185     1     0     0
SMALL
resp


@<TRIPOS>ATOM
      1 C1         -0.3070    1.1820    6.4270 c3        1 MOL     -0.167082
      2 C2         -0.4970    0.8850    4.9260 c         1 MOL      0.747603
      3 O1          0.3510    1.2360    4.1560 o         1 MOL     -0.640391
      4 H1         -1.0450    1.9180    6.7470 hc        1 MOL      0.035392
      5 H2         -0.4390    0.2640    6.9990 hc        1 MOL      0.035392
      6 H3          0.6950    1.5750    6.5960 hc        1 MOL      0.035392
      7 N1         -1.6860    0.4610    4.5230 n         1 MOL     -0.533305
      8 C3         -2.2350    0.7500    3.1690 c3        1 MOL      0.087881
      9 C4         -2.5860    2.1970    3.1410 c         1 MOL      0.553051
     10 O2         -3.2660    2.6480    4.0900 o         1 MOL     -0.581470
     11 C5         -3.4740   -0.0800    2.9320 c3        1 MOL     -0.220234
     12 C6         -4.2690    0.3040    1.6470 c         1 MOL      0.738977
     13 O3         -3.6590    0.4110    0.5620 o         1 MOL     -0.645478
     14 O4         -5.4830    0.3260    1.6700 o         1 MOL     -0.645478
     15 H4         -2.3980    0.3140    5.2330 hn        1 MOL      0.299530
     16 H5         -1.4750    0.4970    2.4240 h1        1 MOL     -0.014451
     17 H6         -4.0230    0.0670    3.8640 hc        1 MOL      0.043125
     18 H7         -3.1540   -1.1050    2.7900 hc        1 MOL      0.043125
     19 N2         -2.0990    2.9470    2.1560 n         1 MOL     -0.208674
     20 C7         -2.2330    4.4460    2.1740 c3        1 MOL      0.002281
     21 C8         -3.1050    4.9570    1.0150 c         1 MOL      0.472935
     22 O5         -3.6540    6.0900    1.0910 o         1 MOL     -0.563749
     23 C9         -0.8820    5.0850    2.2460 c3        1 MOL     -0.116695
     24 C10        -0.0180    4.9540    0.9870 c3        1 MOL      0.095621
     25 C11         1.4220    5.3390    1.2290 c3        1 MOL     -0.080529
     26 C12         2.1890    5.3040   -0.0930 c3        1 MOL      0.106717
     27 N3          3.6420    5.3530    0.1030 n4        1 MOL     -0.476948
     28 H8         -1.4890    2.5420    1.4580 hn        1 MOL      0.159034
     29 H9         -2.7780    4.8180    3.0370 h1        1 MOL      0.093018
     30 H10        -0.4070    4.5970    3.0960 hc        1 MOL      0.052181
     31 H11        -0.9840    6.1550    2.4250 hc        1 MOL      0.052181
     32 H12        -0.4160    5.4790    0.1120 hc        1 MOL      0.007882
     33 H13         0.0990    3.9220    0.6420 hc        1 MOL      0.007882
     34 H14         1.8570    4.5390    1.8370 hc        1 MOL      0.026609
     35 H15         1.4910    6.3220    1.7070 hc        1 MOL      0.026609
     36 H16         1.8470    6.0660   -0.7930 hx        1 MOL      0.057858
     37 H17         1.9610    4.3240   -0.5160 hx        1 MOL      0.057858
     38 H18         4.0340    5.4590   -0.8270 hn        1 MOL      0.339953
     39 H19         3.7680    6.1150    0.7480 hn        1 MOL      0.339953
     40 H20         4.0640    4.5470    0.5380 hn        1 MOL      0.339953
     41 N4         -3.3870    4.1810   -0.0640 n         1 MOL     -0.254672
     42 C13        -4.1500    4.5690   -1.1640 c3        1 MOL     -0.034690
     43 C14        -5.4430    3.8120   -1.3830 c         1 MOL      0.362757
     44 O6         -6.0510    3.9830   -2.4380 o         1 MOL     -0.467261
     45 C15        -3.2860    4.5910   -2.4380 c3        1 MOL     -0.156941
     46 C16        -2.4720    3.3470   -2.7210 c         1 MOL      0.912255
     47 O7         -1.5020    3.5300   -3.4600 o         1 MOL     -0.775283
     48 O8         -2.7390    2.2320   -2.1910 o         1 MOL     -0.775283
     49 H21        -2.8950    3.2920   -0.1270 hn        1 MOL      0.084675
     50 H22        -4.4610    5.6110   -1.0840 h1        1 MOL      0.118506
     51 H23        -2.6310    5.4510   -2.2830 hc        1 MOL      0.037409
     52 H24        -3.9290    4.7480   -3.3080 hc        1 MOL      0.037409
     53 N5         -5.8810    2.9180   -0.4750 n         1 MOL     -0.047995
     54 C17        -7.1660    2.3700   -0.4510 c3        1 MOL     -0.348739
     55 C18        -7.3600    1.2190   -1.4200 c         1 MOL      0.573316
     56 O9         -8.2130    1.3420   -2.3470 o         1 MOL     -0.536172
     57 H25        -5.2640    2.6890    0.2860 hn        1 MOL      0.171532
     58 H26        -7.9040    3.1200   -0.7440 h1        1 MOL      0.132015
     59 H27        -7.3570    1.9880    0.5570 h1        1 MOL      0.132015
     60 N6         -6.5880    0.0820   -1.3090 n         1 MOL     -0.189470
     61 C19        -6.8980   -1.0880   -2.0430 c3        1 MOL     -0.027231
     62 C20        -6.8900   -2.3400   -1.1740 c         1 MOL      0.478959
     63 O10        -7.2030   -3.4180   -1.6510 o         1 MOL     -0.522476
     64 C21        -6.0380   -1.2990   -3.2910 c3        1 MOL      0.048512
     65 C22        -4.6060   -1.0910   -3.0660 c         1 MOL      0.691047
     66 O11        -4.0610   -1.6840   -2.0970 o         1 MOL     -0.680698
     67 O12        -3.9420   -0.2030   -3.6220 o         1 MOL     -0.680698
     68 H28        -5.9290    0.1200   -0.5480 hn        1 MOL     -0.018306
     69 H29        -7.9420   -0.9670   -2.2880 h1        1 MOL      0.071379
     70 H30        -6.2620   -0.6780   -4.1570 hc        1 MOL     -0.005500
     71 H31        -6.2340   -2.3040   -3.6680 hc        1 MOL     -0.005500
     72 N7         -6.6420   -2.2000    0.1470 n         1 MOL     -0.303446
     73 C23        -6.5820   -3.3380    1.0450 c3        1 MOL     -0.218956
     74 C24        -5.2690   -4.0720    0.9850 c         1 MOL      0.578158
     75 O13        -5.1590   -5.1150    1.5880 o         1 MOL     -0.569715
     76 H32        -6.4010   -1.2790    0.4760 hn        1 MOL      0.277700
     77 H33        -7.3990   -4.0290    0.8320 h1        1 MOL      0.128329
     78 H34        -6.6360   -2.9400    2.0580 h1        1 MOL      0.128329
     79 N8         -4.2470   -3.6290    0.2020 n         1 MOL     -0.113920
     80 C25        -2.9570   -4.3360    0.0460 c3        1 MOL     -0.459898
     81 C26        -1.6880   -3.5400    0.0850 c         1 MOL      0.833933
     82 O14        -1.5910   -2.4570   -0.5530 o         1 MOL     -0.753836
     83 C27        -2.8650   -5.1810   -1.2300 c3        1 MOL      0.533646
     84 C28        -3.9790   -6.2050   -1.3030 c3        1 MOL     -0.466234
     85 O15        -2.9680   -4.3560   -2.4200 oh        1 MOL     -0.608561
     86 H35        -4.4780   -2.8710   -0.4160 hn        1 MOL      0.117706
     87 H36        -2.8200   -5.0030    0.8930 h1        1 MOL      0.127590
     88 H37        -1.8900   -5.6630   -1.2540 h1        1 MOL     -0.017172
     89 H38        -3.4670   -3.6040   -2.1050 ho        1 MOL      0.352655
     90 H39        -4.9440   -5.7060   -1.1910 hc        1 MOL      0.118495
     91 H40        -3.8540   -6.7360   -2.2510 hc        1 MOL      0.118495
     92 H41        -3.8660   -6.9520   -0.5100 hc        1 MOL      0.118495
     93 N9         -0.7120   -4.0240    0.8880 n         1 MOL     -0.639272
     94 C29         0.5700   -3.3690    1.2210 c3        1 MOL      0.054788
     95 C30         1.7720   -3.8140    0.3250 c         1 MOL      0.562152
     96 O16         2.2050   -4.9900    0.4020 o         1 MOL     -0.561125
     97 C31         0.8150   -3.5780    2.7290 c3        1 MOL      0.009069
     98 C32        -0.1900   -2.6480    3.5800 c3        1 MOL      0.067937
     99 C33         2.2440   -3.2690    3.2530 c3        1 MOL     -0.395615
    100 C34        -0.0850   -2.8790    5.0740 c3        1 MOL     -0.238763
    101 H42        -0.8850   -4.9240    1.3100 hn        1 MOL      0.321162
    102 H43         0.4250   -2.2900    1.1670 h1        1 MOL      0.137025
    103 H44         0.6200   -4.6290    2.9380 hc        1 MOL      0.050784
    104 H45        -1.2450   -2.8020    3.3540 hc        1 MOL      0.040162
    105 H46         0.0050   -1.6290    3.2450 hc        1 MOL      0.040162
    106 H47         2.3080   -2.2410    3.6080 hc        1 MOL      0.101196
    107 H48         2.4420   -3.9500    4.0760 hc        1 MOL      0.101196
    108 H49         3.0220   -3.6300    2.5790 hc        1 MOL      0.101196
    109 H50         0.8230   -2.4480    5.4980 hc        1 MOL      0.051572
    110 H51        -0.9690   -2.4690    5.5580 hc        1 MOL      0.051572
    111 H52        -0.1580   -3.9420    5.3210 hc        1 MOL      0.051572
    112 N10         2.1890   -2.8950   -0.5140 n         1 MOL     -0.202059
    113 C35         3.3350   -2.9630   -1.3700 c3        1 MOL     -0.267314
    114 C36         4.6240   -2.6030   -0.5640 c         1 MOL      0.346300
    115 O17         4.4740   -2.1070    0.5220 o         1 MOL     -0.273716
    116 C37         3.2470   -1.8900   -2.4340 c3        1 MOL      0.346349
    117 C38         2.2420   -2.0610   -3.5340 c3        1 MOL     -0.332886
    118 O18         3.1260   -0.5970   -1.8090 oh        1 MOL     -0.510217
    119 H53         1.6580   -2.0360   -0.5180 hn        1 MOL      0.192291
    120 H54         3.3080   -3.9630   -1.8080 h1        1 MOL      0.148444
    121 H55         4.1790   -1.8490   -2.9920 h1        1 MOL     -0.018586
    122 H56         2.1720   -0.5590   -1.7250 ho        1 MOL      0.297205
    123 H57         2.4220   -3.0240   -4.0290 hc        1 MOL      0.106521
    124 H58         1.2700   -2.1230   -3.0490 hc        1 MOL      0.106521
    125 H59         2.2060   -1.2340   -4.2470 hc        1 MOL      0.106521
    126 N11         5.8610   -2.8900   -1.0390 n         1 MOL     -0.181342
    127 C39         7.0810   -2.4240   -0.3520 c3        1 MOL     -0.275856
    128 C40         7.1170   -0.8630   -0.0370 c         1 MOL      0.375910
    129 O19         7.5220   -0.4230    1.0500 o         1 MOL     -0.512766
    130 C41         8.3380   -2.7690   -1.0710 c3        1 MOL      0.274942
    131 C42         8.4400   -4.2840   -1.2910 c3        1 MOL     -0.548471
    132 O20         8.3450   -2.2370   -2.3620 oh        1 MOL     -0.672805
    133 H60         5.9310   -3.6110   -1.7330 hn        1 MOL      0.236072
    134 H61         6.8420   -2.8550    0.6140 h1        1 MOL      0.193224
    135 H62         9.2300   -2.3770   -0.5800 h1        1 MOL      0.084829
    136 H63         9.1470   -2.6080   -2.7520 ho        1 MOL      0.436634
    137 H64         9.4250   -4.4140   -1.7310 hc        1 MOL      0.161396
    138 H65         8.2780   -4.8130   -0.3460 hc        1 MOL      0.161396
    139 H66         7.7470   -4.6930   -2.0240 hc        1 MOL      0.161396
    140 N12         6.5430   -0.1260   -0.9290 n         1 MOL     -0.030188
    141 C43         6.3800    1.3850   -0.8590 c3        1 MOL     -0.143535
    142 C44         5.3460    1.7640    0.2810 c         1 MOL      0.463769
    143 O21         5.2400    2.9390    0.6820 o         1 MOL     -0.586762
    144 C45         5.9340    2.0550   -2.2340 c3        1 MOL     -0.124669
    145 C46         6.7230    1.7270   -3.4470 c3        1 MOL     -0.027688
    146 C47         8.2290    1.9880   -3.4590 c3        1 MOL     -0.084206
    147 C48         8.5480    3.4110   -2.9910 c3        1 MOL      0.217833
    148 N13         9.9890    3.7430   -2.9350 n4        1 MOL     -0.267527
    149 H67         6.3190   -0.5370   -1.8300 hn        1 MOL      0.231027
    150 H68         7.2980    1.9240   -0.5910 h1        1 MOL      0.095519
    151 H69         5.9320    3.1300   -2.0920 hc        1 MOL      0.048918
    152 H70         4.9250    1.6900   -2.4110 hc        1 MOL      0.048918
    153 H71         6.2920    2.1400   -4.3510 hc        1 MOL      0.066061
    154 H72         6.5230    0.6720   -3.6240 hc        1 MOL      0.066061
    155 H73         8.7160    1.8620   -4.4230 hc        1 MOL      0.030276
    156 H74         8.5600    1.2550   -2.7180 hc        1 MOL      0.030276
    157 H75         8.0840    3.6240   -2.0300 hx        1 MOL      0.019322
    158 H76         8.1020    4.0650   -3.7400 hx        1 MOL      0.019322
    159 H77        10.5990    3.1490   -2.3880 hn        1 MOL      0.273027
    160 H78        10.4060    3.7710   -3.8540 hn        1 MOL      0.273027
    161 H79        10.0260    4.7110   -2.6730 hn        1 MOL      0.273027
    162 N14         4.6530    0.7300    0.8460 n         1 MOL      0.016687
    163 C49         3.8180    0.8400    1.9590 c3        1 MOL     -0.105937
    164 C50         4.3100    0.1900    3.2070 c         1 MOL      0.484988
    165 O22         4.3690    0.8450    4.2320 o         1 MOL     -0.537131
    166 C51         2.4070    0.4360    1.5560 c3        1 MOL      0.057689
    167 C52         1.6300    1.5290    0.7900 c3        1 MOL     -0.160927
    168 C53         0.3900    0.9220    0.1340 c         1 MOL      0.610432
    169 O23         0.5360   -0.0490   -0.6820 o         1 MOL     -0.616750
    170 O24        -0.7000    1.4700    0.1920 o         1 MOL     -0.616750
    171 H80         4.5810   -0.0870    0.2560 hn        1 MOL     -0.031239
    172 H81         3.8400    1.8790    2.2660 h1        1 MOL      0.081697
    173 H82         1.8750    0.1800    2.4680 hc        1 MOL      0.021446
    174 H83         2.4470   -0.5270    1.0440 hc        1 MOL      0.021446
    175 H84         2.3550    1.9280    0.0790 hc        1 MOL      0.068212
    176 H85         1.3590    2.2560    1.5460 hc        1 MOL      0.068212
    177 N15         4.9890   -0.9630    3.0250 n         1 MOL     -0.046971
    178 C54         5.7310   -1.6500    4.0480 c3        1 MOL     -0.345204
    179 H86         5.2700   -1.4630    5.0180 h1        1 MOL      0.118527
    180 H87         5.7270   -2.7210    3.8440 h1        1 MOL      0.118527
    181 H88         6.7590   -1.2860    4.0580 h1        1 MOL      0.118527
    182 H89         5.1310   -1.1740    2.0500 hn        1 MOL      0.086781
    183 Ca1        -2.0730   -0.0390   -1.6080 Ca        1 MOL      1.768793
    184 O25        -1.6840   -1.9560   -3.4680 oh        1 MOL     -0.865226
    185 H90        -2.4790   -2.4860   -3.4370 ho        1 MOL      0.400179
    186 H91        -1.1760   -2.3370   -4.1890 ho        1 MOL      0.400179
    187 O26        -0.3430    0.9850   -3.4410 oh        1 MOL     -0.865226
    188 H92        -0.2580    0.7480   -4.3610 ho        1 MOL      0.400179
    189 H93        -0.6860    1.8880   -3.4580 ho        1 MOL      0.400179
@<TRIPOS>BOND
     1    1    2 1   
     2    1    4 1   
     3    1    5 1   
     4    1    6 1   
     5    2    3 2   
     6    2    7 1   
     7    7    8 1   
     8    7   15 1   
     9    8    9 1   
    10    8   11 1   
    11    8   16 1   
    12    9   10 2   
    13    9   19 1   
    14   11   12 1   
    15   11   17 1   
    16   11   18 1   
    17   12   13 1   
    18   12   14 1   
    19   19   20 1   
    20   19   28 1   
    21   20   21 1   
    22   20   23 1   
    23   20   29 1   
    24   21   22 2   
    25   21   41 1   
    26   23   24 1   
    27   23   30 1   
    28   23   31 1   
    29   24   25 1   
    30   24   32 1   
    31   24   33 1   
    32   25   26 1   
    33   25   34 1   
    34   25   35 1   
    35   26   27 1   
    36   26   36 1   
    37   26   37 1   
    38   27   38 1   
    39   27   39 1   
    40   27   40 1   
    41   41   42 1   
    42   41   49 1   
    43   42   43 1   
    44   42   45 1   
    45   42   50 1   
    46   43   44 2   
    47   43   53 1   
    48   45   46 1   
    49   45   51 1   
    50   45   52 1   
    51   46   47 1   
    52   46   48 1   
    53   53   54 1   
    54   53   57 1   
    55   54   55 1   
    56   54   58 1   
    57   54   59 1   
    58   55   56 2   
    59   55   60 1   
    60   60   61 1   
    61   60   68 1   
    62   61   62 1   
    63   61   64 1   
    64   61   69 1   
    65   62   63 2   
    66   62   72 1   
    67   64   65 1   
    68   64   70 1   
    69   64   71 1   
    70   65   66 1   
    71   65   67 1   
    72   72   73 1   
    73   72   76 1   
    74   73   74 1   
    75   73   77 1   
    76   73   78 1   
    77   74   75 2   
    78   74   79 1   
    79   79   80 1   
    80   79   86 1   
    81   80   81 1   
    82   80   83 1   
    83   80   87 1   
    84   81   82 2   
    85   81   93 1   
    86   83   84 1   
    87   83   85 1   
    88   83   88 1   
    89   84   90 1   
    90   84   91 1   
    91   84   92 1   
    92   85   89 1   
    93   93   94 1   
    94   93  101 1   
    95   94   95 1   
    96   94   97 1   
    97   94  102 1   
    98   95   96 2   
    99   95  112 1   
   100   97   98 1   
   101   97   99 1   
   102   97  103 1   
   103   98  100 1   
   104   98  104 1   
   105   98  105 1   
   106   99  106 1   
   107   99  107 1   
   108   99  108 1   
   109  100  109 1   
   110  100  110 1   
   111  100  111 1   
   112  112  113 1   
   113  112  119 1   
   114  113  114 1   
   115  113  116 1   
   116  113  120 1   
   117  114  115 2   
   118  114  126 1   
   119  116  117 1   
   120  116  118 1   
   121  116  121 1   
   122  117  123 1   
   123  117  124 1   
   124  117  125 1   
   125  118  122 1   
   126  126  127 1   
   127  126  133 1   
   128  127  128 1   
   129  127  130 1   
   130  127  134 1   
   131  128  129 2   
   132  128  140 1   
   133  130  131 1   
   134  130  132 1   
   135  130  135 1   
   136  131  137 1   
   137  131  138 1   
   138  131  139 1   
   139  132  136 1   
   140  140  141 1   
   141  140  149 1   
   142  141  142 1   
   143  141  144 1   
   144  141  150 1   
   145  142  143 2   
   146  142  162 1   
   147  144  145 1   
   148  144  151 1   
   149  144  152 1   
   150  145  146 1   
   151  145  153 1   
   152  145  154 1   
   153  146  147 1   
   154  146  155 1   
   155  146  156 1   
   156  147  148 1   
   157  147  157 1   
   158  147  158 1   
   159  148  159 1   
   160  148  160 1   
   161  148  161 1   
   162  162  163 1   
   163  162  171 1   
   164  163  164 1   
   165  163  166 1   
   166  163  172 1   
   167  164  165 2   
   168  164  177 1   
   169  166  167 1   
   170  166  173 1   
   171  166  174 1   
   172  167  168 1   
   173  167  175 1   
   174  167  176 1   
   175  168  169 1   
   176  168  170 1   
   177  177  178 1   
   178  177  182 1   
   179  178  179 1   
   180  178  180 1   
   181  178  181 1   
   182  184  185 1   
   183  184  186 1   
   184  187  188 1   
   185  187  189 1   
@<TRIPOS>SUBSTRUCTURE
     1 MOL         1 TEMP              0 ****  ****    0 ROOT
