@<TRIPOS>MOLECULE
MOL
  189   185     1     0     0
SMALL
resp


@<TRIPOS>ATOM
      1 C1          0.2180    1.1570    6.1410 c3        1 MOL     -0.437731
      2 C2         -0.1690    1.1780    4.6410 c         1 MOL      0.849999
      3 O1          0.7080    1.6040    3.8740 o         1 MOL     -0.615728
      4 H1         -0.0320    0.1860    6.5680 hc        1 MOL      0.107820
      5 H2          1.2890    1.3330    6.2430 hc        1 MOL      0.107820
      6 H3         -0.3310    1.9370    6.6680 hc        1 MOL      0.107820
      7 N1         -1.3880    0.8940    4.2520 n         1 MOL     -0.743887
      8 C3         -1.8780    1.0710    2.9360 c3        1 MOL      0.069285
      9 C4         -2.1790    2.5590    2.6910 c         1 MOL      0.639828
     10 O2         -2.9140    3.1680    3.3940 o         1 MOL     -0.592414
     11 C5         -3.1940    0.3340    2.8050 c3        1 MOL     -0.218641
     12 C6         -3.9130    0.4380    1.4260 c         1 MOL      0.863520
     13 O3         -5.0550   -0.0440    1.3460 o         1 MOL     -0.720088
     14 O4         -3.4140    0.9370    0.4480 o         1 MOL     -0.720088
     15 H4         -2.1140    0.7280    4.9320 hn        1 MOL      0.386909
     16 H5         -1.1640    0.7410    2.1870 h1        1 MOL     -0.007361
     17 H6         -3.8440    0.5840    3.6360 hc        1 MOL      0.056768
     18 H7         -2.9890   -0.7360    2.8870 hc        1 MOL      0.056768
     19 N2         -1.6330    3.0530    1.5790 n         1 MOL     -0.066581
     20 C7         -1.5250    4.5120    1.2860 c3        1 MOL      0.023451
     21 C8         -2.5040    5.0910    0.2310 c         1 MOL      0.440012
     22 O5         -2.9560    6.2180    0.3530 o         1 MOL     -0.542427
     23 C9         -0.0250    4.9180    0.9090 c3        1 MOL     -0.170123
     24 C10         1.0980    4.3330    1.7880 c3        1 MOL      0.088356
     25 C11         0.8480    4.7280    3.2540 c3        1 MOL     -0.026264
     26 C12         2.0680    4.4420    4.0690 c3        1 MOL      0.090801
     27 N3          1.7940    5.0070    5.3640 n4        1 MOL     -0.170777
     28 H8         -1.0280    2.3860    1.1260 hn        1 MOL      0.003800
     29 H9         -1.8240    4.9700    2.2220 h1        1 MOL      0.021657
     30 H10        -0.0450    6.0010    0.7760 hc        1 MOL      0.051608
     31 H11         0.1150    4.4930   -0.0860 hc        1 MOL      0.051608
     32 H12         2.0400    4.7850    1.4680 hc        1 MOL      0.007994
     33 H13         1.2780    3.2670    1.6540 hc        1 MOL      0.007994
     34 H14        -0.0180    4.1710    3.5910 hc        1 MOL      0.004404
     35 H15         0.7400    5.8130    3.3300 hc        1 MOL      0.004404
     36 H16         2.8710    5.0250    3.6190 hx        1 MOL      0.048889
     37 H17         2.2780    3.3760    4.0680 hx        1 MOL      0.048889
     38 H18         2.5990    5.2870    5.8940 hn        1 MOL      0.261367
     39 H19         1.3380    5.9090    5.3080 hn        1 MOL      0.261367
     40 H20         1.2310    4.3840    5.9360 hn        1 MOL      0.261367
     41 N4         -2.8590    4.2540   -0.7940 n         1 MOL     -0.180406
     42 C13        -3.8940    4.5980   -1.7870 c3        1 MOL     -0.012194
     43 C14        -5.2390    3.9220   -1.6350 c         1 MOL      0.415324
     44 O6         -6.2050    4.3170   -2.3390 o         1 MOL     -0.526365
     45 C15        -3.3630    4.3090   -3.2440 c3        1 MOL     -0.365836
     46 C16        -2.6300    3.0330   -3.4100 c         1 MOL      0.777402
     47 O7         -2.2280    2.7890   -4.5560 o         1 MOL     -0.654556
     48 O8         -2.7750    2.0790   -2.6110 o         1 MOL     -0.654556
     49 H21        -2.4130    3.3550   -0.8610 hn        1 MOL      0.112208
     50 H22        -4.1690    5.6440   -1.7190 h1        1 MOL      0.111579
     51 H23        -2.7810    5.1460   -3.6250 hc        1 MOL      0.113001
     52 H24        -4.2750    4.2110   -3.8350 hc        1 MOL      0.113001
     53 N5         -5.4520    3.0240   -0.6270 n         1 MOL     -0.046742
     54 C17        -6.7650    2.5720   -0.1630 c3        1 MOL     -0.274603
     55 C18        -7.3550    1.4560   -1.0560 c         1 MOL      0.760599
     56 O9         -8.3700    1.6710   -1.7110 o         1 MOL     -0.593352
     57 H25        -4.6480    2.7480   -0.0750 hn        1 MOL      0.089227
     58 H26        -7.4450    3.4150   -0.0740 h1        1 MOL      0.095143
     59 H27        -6.6140    2.1680    0.8390 h1        1 MOL      0.095143
     60 N6         -6.7880    0.2640   -0.9800 n         1 MOL     -0.561638
     61 C19        -7.2040   -0.9730   -1.7060 c3        1 MOL      0.071221
     62 C20        -7.1640   -2.2570   -0.8870 c         1 MOL      0.466820
     63 O10        -7.1450   -3.3190   -1.4900 o         1 MOL     -0.526159
     64 C21        -6.2920   -1.0870   -2.9020 c3        1 MOL     -0.164446
     65 C22        -4.8270   -1.1880   -2.5010 c         1 MOL      0.694862
     66 O11        -4.4370   -1.7270   -1.3750 o         1 MOL     -0.702311
     67 O12        -3.9650   -0.7730   -3.3360 o         1 MOL     -0.702311
     68 H28        -5.9330    0.1870   -0.4380 hn        1 MOL      0.196039
     69 H29        -8.2340   -0.8740   -2.0560 h1        1 MOL      0.090780
     70 H30        -6.4910   -0.1910   -3.4810 hc        1 MOL      0.080772
     71 H31        -6.6140   -1.9060   -3.5450 hc        1 MOL      0.080772
     72 N7         -6.9790   -2.1870    0.4380 n         1 MOL     -0.396298
     73 C23        -6.8850   -3.3310    1.3840 c3        1 MOL     -0.054857
     74 C24        -5.5610   -4.1460    1.3030 c         1 MOL      0.456088
     75 O13        -5.5160   -5.2390    1.8750 o         1 MOL     -0.562523
     76 H32        -7.0210   -1.2750    0.8870 hn        1 MOL      0.306767
     77 H33        -7.7170   -4.0310    1.3070 h1        1 MOL      0.090019
     78 H34        -6.9400   -3.0110    2.4270 h1        1 MOL      0.090019
     79 N8         -4.5020   -3.6870    0.5950 n         1 MOL     -0.126059
     80 C25        -3.2390   -4.3420    0.3600 c3        1 MOL     -0.180071
     81 C26        -2.0460   -3.4450    0.5980 c         1 MOL      0.569189
     82 O14        -2.1020   -2.2550    0.3500 o         1 MOL     -0.607048
     83 C27        -3.1260   -4.9590   -1.0400 c3        1 MOL      0.476952
     84 C28        -4.2560   -5.9480   -1.3030 c3        1 MOL     -0.479055
     85 O15        -3.1880   -4.0070   -1.9940 oh        1 MOL     -0.579415
     86 H35        -4.5450   -2.7600    0.1900 hn        1 MOL      0.158651
     87 H36        -3.1210   -5.1580    1.0820 h1        1 MOL      0.067562
     88 H37        -2.1600   -5.4540   -1.1110 h1        1 MOL     -0.030947
     89 H38        -3.8000   -3.3630   -1.6280 ho        1 MOL      0.407059
     90 H39        -5.2260   -5.4780   -1.4680 hc        1 MOL      0.117351
     91 H40        -4.0140   -6.5810   -2.1550 hc        1 MOL      0.117351
     92 H41        -4.2240   -6.5450   -0.3920 hc        1 MOL      0.117351
     93 N9         -0.8620   -3.9690    0.9710 n         1 MOL     -0.497022
     94 C29         0.3080   -3.2160    1.3070 c3        1 MOL      0.015355
     95 C30         1.4650   -3.7430    0.3970 c         1 MOL      0.448733
     96 O16         1.8510   -4.9080    0.5110 o         1 MOL     -0.549452
     97 C31         0.6910   -3.2500    2.8080 c3        1 MOL      0.175867
     98 C32        -0.3930   -2.6080    3.7330 c3        1 MOL      0.031661
     99 C33         2.0250   -2.5440    3.1040 c3        1 MOL     -0.367458
    100 C34        -0.4730   -3.2700    5.0620 c3        1 MOL     -0.354976
    101 H42        -0.9410   -4.9520    1.1850 hn        1 MOL      0.283335
    102 H43         0.2490   -2.1720    0.9920 h1        1 MOL      0.118727
    103 H44         0.7370   -4.3140    3.0510 hc        1 MOL      0.019083
    104 H45        -1.3920   -2.5640    3.2970 hc        1 MOL      0.063948
    105 H46        -0.0320   -1.6000    3.9270 hc        1 MOL      0.063948
    106 H47         2.1960   -2.2460    4.1360 hc        1 MOL      0.072004
    107 H48         2.8190   -3.1660    2.6920 hc        1 MOL      0.072004
    108 H49         1.9640   -1.5690    2.6270 hc        1 MOL      0.072004
    109 H50        -1.1000   -2.6700    5.7250 hc        1 MOL      0.080303
    110 H51        -0.6420   -4.3310    4.8960 hc        1 MOL      0.080303
    111 H52         0.5450   -3.1670    5.4180 hc        1 MOL      0.080303
    112 N10         2.0270   -2.8560   -0.4360 n         1 MOL     -0.112911
    113 C35         3.2450   -3.2110   -1.1810 c3        1 MOL      0.050141
    114 C36         4.6620   -2.8980   -0.4700 c         1 MOL      0.340228
    115 O17         4.6610   -2.2600    0.5860 o         1 MOL     -0.339312
    116 C37         3.2500   -2.4590   -2.4630 c3        1 MOL      0.182641
    117 C38         1.9520   -2.2520   -3.2460 c3        1 MOL     -0.357495
    118 O18         3.7350   -1.1620   -2.2900 oh        1 MOL     -0.566475
    119 H53         1.5900   -1.9560   -0.6010 hn        1 MOL      0.118878
    120 H54         3.1880   -4.2620   -1.4550 h1        1 MOL      0.069324
    121 H55         3.9770   -2.9970   -3.0730 h1        1 MOL      0.016226
    122 H56         3.5830   -0.7240   -3.1300 ho        1 MOL      0.404348
    123 H57         2.1740   -1.8080   -4.2190 hc        1 MOL      0.101374
    124 H58         1.3900   -3.1860   -3.2880 hc        1 MOL      0.101374
    125 H59         1.3400   -1.5750   -2.6410 hc        1 MOL      0.101374
    126 N11         5.8040   -3.2480   -1.1370 n         1 MOL     -0.358517
    127 C39         7.0890   -2.9490   -0.4600 c3        1 MOL      0.163824
    128 C40         7.2190   -1.4450   -0.2270 c         1 MOL      0.191904
    129 O19         7.5910   -0.9890    0.8350 o         1 MOL     -0.470470
    130 C41         8.3460   -3.5970   -1.1110 c3        1 MOL      0.457796
    131 C42         9.3590   -3.7850   -0.0180 c3        1 MOL     -0.551291
    132 O20         7.9530   -4.9060   -1.5740 oh        1 MOL     -0.627639
    133 H60         5.8040   -3.7480   -2.0070 hn        1 MOL      0.234243
    134 H61         7.1730   -3.3800    0.5430 h1        1 MOL      0.065435
    135 H62         8.6100   -3.0770   -2.0330 h1        1 MOL     -0.052457
    136 H63         8.5500   -5.1450   -2.2920 ho        1 MOL      0.384605
    137 H64         8.9270   -4.3620    0.8040 hc        1 MOL      0.150605
    138 H65        10.3410   -4.2240   -0.2020 hc        1 MOL      0.150605
    139 H66         9.7160   -2.7640    0.0890 hc        1 MOL      0.150605
    140 N12         6.8470   -0.7590   -1.2480 n         1 MOL     -0.114256
    141 C43         6.9480    0.6400   -1.3050 c3        1 MOL     -0.086469
    142 C44         6.0520    1.3480   -0.2820 c         1 MOL      0.317246
    143 O21         6.3500    2.3770    0.2840 o         1 MOL     -0.511607
    144 C45         6.6260    1.0680   -2.7510 c3        1 MOL     -0.542755
    145 C46         6.9930    2.6130   -2.8730 c3        1 MOL      0.173724
    146 C47         6.8310    3.0640   -4.3350 c3        1 MOL     -0.242621
    147 C48         7.0780    4.5930   -4.4760 c3        1 MOL     -0.042967
    148 N13         8.4850    5.2190   -4.4080 n4        1 MOL     -0.416401
    149 H67         6.6140   -1.2080   -2.1250 hn        1 MOL      0.180308
    150 H68         7.9830    0.9160   -1.1420 h1        1 MOL      0.136453
    151 H69         5.5490    0.9500   -2.9140 hc        1 MOL      0.188506
    152 H70         7.2870    0.5040   -3.4120 hc        1 MOL      0.188506
    153 H71         7.9800    2.8320   -2.4660 hc        1 MOL      0.040709
    154 H72         6.2540    3.1520   -2.2790 hc        1 MOL      0.040709
    155 H73         5.8080    2.7630   -4.5630 hc        1 MOL      0.106680
    156 H74         7.3870    2.4900   -5.0670 hc        1 MOL      0.106680
    157 H75         6.3740    5.1080   -3.8220 hx        1 MOL      0.122609
    158 H76         6.8110    4.8780   -5.4960 hx        1 MOL      0.122609
    159 H77         8.8750    5.0550   -5.3240 hn        1 MOL      0.320678
    160 H78         8.3860    6.2110   -4.2190 hn        1 MOL      0.320678
    161 H79         9.0480    4.6620   -3.7740 hn        1 MOL      0.320678
    162 N14         4.8650    0.7390    0.0440 n         1 MOL      0.221288
    163 C49         3.9690    1.2200    1.1350 c3        1 MOL     -0.262882
    164 C50         4.5270    1.0690    2.5810 c         1 MOL      0.501964
    165 O22         4.4390    1.9150    3.4570 o         1 MOL     -0.562175
    166 C51         2.6110    0.6510    0.9000 c3        1 MOL     -0.024971
    167 C52         2.0070    1.2160   -0.4220 c3        1 MOL     -0.223771
    168 C53         0.5100    0.8120   -0.5480 c         1 MOL      0.685310
    169 O23         0.2650   -0.4600   -0.6710 o         1 MOL     -0.635724
    170 O24        -0.4650    1.6330   -0.6720 o         1 MOL     -0.635724
    171 H80         4.5190   -0.0140   -0.5310 hn        1 MOL     -0.043957
    172 H81         3.7830    2.2870    0.9980 h1        1 MOL      0.079042
    173 H82         1.9740    0.9500    1.7380 hc        1 MOL      0.065761
    174 H83         2.6590   -0.4390    0.8360 hc        1 MOL      0.065761
    175 H84         2.5610    0.8680   -1.3000 hc        1 MOL      0.071878
    176 H85         2.0060    2.3080   -0.3720 hc        1 MOL      0.071878
    177 N15         5.1940   -0.0880    2.8000 n         1 MOL     -0.021221
    178 C54         5.9240   -0.3950    3.9640 c3        1 MOL     -0.280912
    179 H86         5.7510   -1.4360    4.2370 h1        1 MOL      0.098157
    180 H87         6.9870   -0.2400    3.7780 h1        1 MOL      0.098157
    181 H88         5.5990    0.2530    4.7780 h1        1 MOL      0.098157
    182 H89         5.2080   -0.8160    2.0920 hn        1 MOL      0.146232
    183 Ca1        -2.1810   -0.1240   -1.5310 Ca        1 MOL      1.718604
    184 O25        -0.5240    0.4010   -3.9150 oh        1 MOL     -0.805940
    185 H90        -1.0860    0.9540   -4.4580 ho        1 MOL      0.373701
    186 H91        -0.4290   -0.4110   -4.4110 ho        1 MOL      0.373701
    187 O26        -1.4140   -2.2130   -2.9320 oh        1 MOL     -0.805940
    188 H92        -1.9280   -3.0220   -2.8700 ho        1 MOL      0.373701
    189 H93        -0.9620   -2.2820   -3.7730 ho        1 MOL      0.373701
@<TRIPOS>BOND
     1    1    2 1   
     2    1    4 1   
     3    1    5 1   
     4    1    6 1   
     5    2    3 2   
     6    2    7 1   
     7    7    8 1   
     8    7   15 1   
     9    8    9 1   
    10    8   11 1   
    11    8   16 1   
    12    9   10 2   
    13    9   19 1   
    14   11   12 1   
    15   11   17 1   
    16   11   18 1   
    17   12   13 1   
    18   12   14 1   
    19   19   20 1   
    20   19   28 1   
    21   20   21 1   
    22   20   23 1   
    23   20   29 1   
    24   21   22 2   
    25   21   41 1   
    26   23   24 1   
    27   23   30 1   
    28   23   31 1   
    29   24   25 1   
    30   24   32 1   
    31   24   33 1   
    32   25   26 1   
    33   25   34 1   
    34   25   35 1   
    35   26   27 1   
    36   26   36 1   
    37   26   37 1   
    38   27   38 1   
    39   27   39 1   
    40   27   40 1   
    41   41   42 1   
    42   41   49 1   
    43   42   43 1   
    44   42   45 1   
    45   42   50 1   
    46   43   44 2   
    47   43   53 1   
    48   45   46 1   
    49   45   51 1   
    50   45   52 1   
    51   46   47 1   
    52   46   48 1   
    53   53   54 1   
    54   53   57 1   
    55   54   55 1   
    56   54   58 1   
    57   54   59 1   
    58   55   56 2   
    59   55   60 1   
    60   60   61 1   
    61   60   68 1   
    62   61   62 1   
    63   61   64 1   
    64   61   69 1   
    65   62   63 2   
    66   62   72 1   
    67   64   65 1   
    68   64   70 1   
    69   64   71 1   
    70   65   66 1   
    71   65   67 1   
    72   72   73 1   
    73   72   76 1   
    74   73   74 1   
    75   73   77 1   
    76   73   78 1   
    77   74   75 2   
    78   74   79 1   
    79   79   80 1   
    80   79   86 1   
    81   80   81 1   
    82   80   83 1   
    83   80   87 1   
    84   81   82 2   
    85   81   93 1   
    86   83   84 1   
    87   83   85 1   
    88   83   88 1   
    89   84   90 1   
    90   84   91 1   
    91   84   92 1   
    92   85   89 1   
    93   93   94 1   
    94   93  101 1   
    95   94   95 1   
    96   94   97 1   
    97   94  102 1   
    98   95   96 2   
    99   95  112 1   
   100   97   98 1   
   101   97   99 1   
   102   97  103 1   
   103   98  100 1   
   104   98  104 1   
   105   98  105 1   
   106   99  106 1   
   107   99  107 1   
   108   99  108 1   
   109  100  109 1   
   110  100  110 1   
   111  100  111 1   
   112  112  113 1   
   113  112  119 1   
   114  113  114 1   
   115  113  116 1   
   116  113  120 1   
   117  114  115 2   
   118  114  126 1   
   119  116  117 1   
   120  116  118 1   
   121  116  121 1   
   122  117  123 1   
   123  117  124 1   
   124  117  125 1   
   125  118  122 1   
   126  126  127 1   
   127  126  133 1   
   128  127  128 1   
   129  127  130 1   
   130  127  134 1   
   131  128  129 2   
   132  128  140 1   
   133  130  131 1   
   134  130  132 1   
   135  130  135 1   
   136  131  137 1   
   137  131  138 1   
   138  131  139 1   
   139  132  136 1   
   140  140  141 1   
   141  140  149 1   
   142  141  142 1   
   143  141  144 1   
   144  141  150 1   
   145  142  143 2   
   146  142  162 1   
   147  144  145 1   
   148  144  151 1   
   149  144  152 1   
   150  145  146 1   
   151  145  153 1   
   152  145  154 1   
   153  146  147 1   
   154  146  155 1   
   155  146  156 1   
   156  147  148 1   
   157  147  157 1   
   158  147  158 1   
   159  148  159 1   
   160  148  160 1   
   161  148  161 1   
   162  162  163 1   
   163  162  171 1   
   164  163  164 1   
   165  163  166 1   
   166  163  172 1   
   167  164  165 2   
   168  164  177 1   
   169  166  167 1   
   170  166  173 1   
   171  166  174 1   
   172  167  168 1   
   173  167  175 1   
   174  167  176 1   
   175  168  169 1   
   176  168  170 1   
   177  177  178 1   
   178  177  182 1   
   179  178  179 1   
   180  178  180 1   
   181  178  181 1   
   182  184  185 1   
   183  184  186 1   
   184  187  188 1   
   185  187  189 1   
@<TRIPOS>SUBSTRUCTURE
     1 MOL         1 TEMP              0 ****  ****    0 ROOT
