@<TRIPOS>MOLECULE
MOL
  175   173     1     0     0
SMALL
resp


@<TRIPOS>ATOM
      1 C1          0.6370   -3.5090    5.5920 c3        1 MOL     -0.362187
      2 C2          1.1420   -3.2070    4.1790 c         1 MOL      0.739915
      3 O1          0.7320   -3.9020    3.2950 o         1 MOL     -0.555163
      4 H1          0.1290   -4.4740    5.5970 hc        1 MOL      0.086291
      5 H2          1.4810   -3.5400    6.2810 hc        1 MOL      0.086291
      6 H3         -0.0590   -2.7310    5.9050 hc        1 MOL      0.086291
      7 N1          2.2100   -2.3270    4.0620 n         1 MOL     -0.718104
      8 C3          2.8500   -1.9700    2.7620 c3        1 MOL      0.463645
      9 C4          3.4960   -3.1730    2.0300 c         1 MOL      0.298745
     10 O2          4.6730   -3.4540    2.2020 o         1 MOL     -0.534644
     11 C5          3.6650   -0.7130    2.9490 c3        1 MOL     -0.108741
     12 C6          4.3070   -0.1940    1.6830 c         1 MOL      0.635052
     13 O3          5.1710    0.7320    1.7660 o         1 MOL     -0.648378
     14 O4          4.0110   -0.6950    0.5860 o         1 MOL     -0.648378
     15 H4          2.4330   -1.7570    4.8670 hn        1 MOL      0.313186
     16 H5          2.0150   -1.5570    2.2040 h1        1 MOL     -0.112228
     17 H6          4.5240   -0.9280    3.5850 hc        1 MOL      0.015887
     18 H7          3.1310    0.1130    3.4180 hc        1 MOL      0.015887
     19 N2          2.7100   -3.8420    1.2120 n         1 MOL     -0.000329
     20 C7          3.1230   -5.2120    0.7890 c3        1 MOL      0.056001
     21 C8          4.0440   -5.2890   -0.4590 c         1 MOL      0.445166
     22 O5          4.6520   -6.3010   -0.7050 o         1 MOL     -0.549591
     23 C9          1.9000   -6.0530    0.5400 c3        1 MOL     -0.358096
     24 H8          1.7670   -3.5250    1.0530 hn        1 MOL      0.151166
     25 H9          3.7670   -5.5580    1.6070 h1        1 MOL      0.055470
     26 H10         1.4660   -5.8190   -0.4320 hc        1 MOL      0.098338
     27 H11         2.2580   -7.0790    0.5010 hc        1 MOL      0.098338
     28 H12         1.1710   -5.9590    1.3550 hc        1 MOL      0.098338
     29 N3          4.0840   -4.1990   -1.2380 n         1 MOL     -0.201962
     30 C10         5.2220   -3.8620   -2.1780 c3        1 MOL     -0.070550
     31 C11         6.3620   -2.9960   -1.6760 c         1 MOL      0.521057
     32 O6          7.5140   -3.1660   -2.1550 o         1 MOL     -0.574441
     33 C12         4.5080   -3.3450   -3.4820 c3        1 MOL     -0.116940
     34 C13         3.7030   -2.0250   -3.3640 c         1 MOL      0.755535
     35 O7          3.2470   -1.5260   -4.4130 o         1 MOL     -0.731793
     36 O8          3.4510   -1.5490   -2.2190 o         1 MOL     -0.731793
     37 H13         3.3900   -3.5030   -1.0210 hn        1 MOL      0.155517
     38 H14         5.6690   -4.8120   -2.4920 h1        1 MOL      0.084936
     39 H15         3.7340   -4.0760   -3.7410 hc        1 MOL      0.026417
     40 H16         5.2270   -3.1710   -4.2950 hc        1 MOL      0.026417
     41 N4          6.1100   -2.2470   -0.6090 n         1 MOL      0.059644
     42 C14         7.1420   -1.5980    0.1340 c3        1 MOL     -0.119413
     43 C15         7.5470   -0.3250   -0.5500 c         1 MOL      0.473685
     44 O9          8.6800   -0.2600   -1.0090 o         1 MOL     -0.558318
     45 H17         5.1540   -2.0940   -0.3040 hn        1 MOL     -0.140388
     46 H18         7.9670   -2.3100    0.2170 h1        1 MOL      0.081672
     47 H19         6.9200   -1.4400    1.1840 h1        1 MOL      0.081672
     48 N5          6.6850    0.6390   -0.7330 n         1 MOL     -0.269252
     49 C16         6.7930    1.7890   -1.5550 c3        1 MOL      0.074610
     50 C17         6.8950    3.1450   -0.7570 c         1 MOL      0.353471
     51 O10         7.4270    4.1550   -1.2810 o         1 MOL     -0.535770
     52 C18         5.7320    1.7720   -2.6570 c3        1 MOL     -0.089290
     53 C19         4.4360    2.3130   -2.1540 c         1 MOL      0.564773
     54 N6          3.8310    3.2550   -2.7790 n         1 MOL     -0.804128
     55 O11         3.9420    1.9780   -1.1540 o         1 MOL     -0.628206
     56 H20         5.7710    0.6070   -0.2940 hn        1 MOL      0.189599
     57 H21         7.7610    1.8510   -2.0550 h1        1 MOL      0.071388
     58 H22         5.5740    0.7520   -3.0000 hc        1 MOL      0.058717
     59 H23         5.9930    2.4150   -3.5000 hc        1 MOL      0.058717
     60 H24         4.2990    3.7560   -3.5250 hn        1 MOL      0.372459
     61 H25         3.1830    3.6800   -2.1420 hn        1 MOL      0.372459
     62 N7          6.3980    3.1900    0.5410 n         1 MOL     -0.066178
     63 C20         6.3330    4.3850    1.3540 c3        1 MOL     -0.296163
     64 C21         4.7940    4.7070    1.6280 c         1 MOL      0.624444
     65 O12         4.5320    5.5660    2.4570 o         1 MOL     -0.593788
     66 H26         6.1220    2.2900    0.9080 hn        1 MOL      0.146854
     67 H27         6.8320    5.2020    0.8520 h1        1 MOL      0.136693
     68 H28         6.7060    4.0960    2.3360 h1        1 MOL      0.136693
     69 N8          3.7320    3.9980    1.1150 n         1 MOL     -0.241324
     70 C22         2.3250    4.3300    1.3180 c3        1 MOL     -0.163296
     71 C23         1.3870    3.1460    1.3460 c         1 MOL      0.623888
     72 O13         1.7530    2.1010    0.8310 o         1 MOL     -0.542269
     73 C24         1.7600    5.3340    0.3220 c3        1 MOL      0.282814
     74 C25         2.4410    6.7020    0.2090 c3        1 MOL     -0.360447
     75 O14         1.6000    4.7020   -0.8880 oh        1 MOL     -0.589423
     76 H29         3.9570    3.2340    0.4930 hn        1 MOL      0.173634
     77 H30         2.1960    4.6740    2.3460 h1        1 MOL      0.100071
     78 H31         0.7300    5.4680    0.6380 h1        1 MOL      0.042075
     79 H32         1.7760    5.4030   -1.5160 ho        1 MOL      0.388163
     80 H33         2.5420    7.2360    1.1500 hc        1 MOL      0.101803
     81 H34         3.4370    6.5220   -0.1920 hc        1 MOL      0.101803
     82 H35         1.9410    7.3830   -0.4870 hc        1 MOL      0.101803
     83 N9          0.1290    3.3580    1.7550 n         1 MOL     -0.405293
     84 C26        -0.8930    2.3860    1.5260 c3        1 MOL     -0.005763
     85 C27        -1.7240    2.8720    0.3710 c         1 MOL      0.646861
     86 O15        -2.1260    4.0240    0.3750 o         1 MOL     -0.642612
     87 C28        -1.5990    2.1320    2.8720 c3        1 MOL      0.411389
     88 C29        -2.3520    3.3720    3.4140 c3        1 MOL     -0.096923
     89 C30        -0.6710    1.3760    3.8400 c3        1 MOL     -0.489842
     90 C31        -2.9470    3.1250    4.8380 c3        1 MOL     -0.052288
     91 H36        -0.1660    4.2310    2.1800 hn        1 MOL      0.216694
     92 H37        -0.4160    1.4840    1.1540 h1        1 MOL     -0.049877
     93 H38        -2.3930    1.4310    2.6190 hc        1 MOL     -0.133766
     94 H39        -3.1620    3.5600    2.7010 hc        1 MOL      0.037522
     95 H40        -1.6810    4.2170    3.5820 hc        1 MOL      0.037522
     96 H41        -0.0890    2.1210    4.3870 hc        1 MOL      0.112131
     97 H42        -1.2790    0.6930    4.4320 hc        1 MOL      0.112131
     98 H43         0.0780    0.7750    3.3320 hc        1 MOL      0.112131
     99 H44        -3.5640    2.2210    4.8820 hc        1 MOL      0.002849
    100 H45        -2.1230    3.0190    5.5410 hc        1 MOL      0.002849
    101 H46        -3.5530    3.9980    5.1200 hc        1 MOL      0.002849
    102 N10        -2.0670    1.9260   -0.4840 n         1 MOL     -0.413198
    103 C32        -3.0760    1.8960   -1.5830 c3        1 MOL      0.230188
    104 C33        -4.3760    1.3450   -0.9420 c         1 MOL      0.385124
    105 O16        -4.4240    0.9640    0.2420 o         1 MOL     -0.460822
    106 C34        -2.5480    1.1320   -2.7350 c3        1 MOL     -0.320773
    107 C35        -3.4420    1.0880   -3.9480 c         1 MOL      0.773686
    108 O17        -3.2260    0.2380   -4.8030 o         1 MOL     -0.715387
    109 O18        -4.4070    1.8660   -4.1890 o         1 MOL     -0.715387
    110 H47        -1.6230    1.0330   -0.3330 hn        1 MOL      0.272076
    111 H48        -3.3870    2.8640   -1.9760 h1        1 MOL      0.018594
    112 H49        -2.4520    0.0950   -2.4210 hc        1 MOL      0.065679
    113 H50        -1.5570    1.5230   -2.9620 hc        1 MOL      0.065679
    114 N11        -5.4970    1.3680   -1.6410 n         1 MOL     -0.433083
    115 C36        -6.8160    0.8960   -1.1130 c3        1 MOL      0.282048
    116 C37        -6.8620   -0.6570   -0.8060 c         1 MOL      0.301375
    117 O19        -7.4870   -1.0640    0.2280 o         1 MOL     -0.531330
    118 C38        -8.0440    1.3020   -1.9940 c3        1 MOL     -0.205217
    119 C39        -9.3660    1.2510   -1.3230 ca        1 MOL     -0.000498
    120 C40        -9.6520    1.9970   -0.1390 ca        1 MOL     -0.047213
    121 C41       -10.4270    0.5070   -1.8880 ca        1 MOL     -0.047213
    122 C42       -10.9380    1.9630    0.4940 ca        1 MOL     -0.224879
    123 C43       -11.6980    0.5080   -1.3370 ca        1 MOL     -0.224879
    124 C44       -11.9070    1.1960   -0.1380 ca        1 MOL     -0.009466
    125 H51        -5.4690    1.8760   -2.5090 hn        1 MOL      0.223377
    126 H52        -6.9140    1.3520   -0.1230 h1        1 MOL      0.045529
    127 H53        -7.9830    0.7590   -2.9430 hc        1 MOL      0.086939
    128 H54        -7.8880    2.3170   -2.3470 hc        1 MOL      0.086939
    129 H55        -8.9370    2.6530    0.3230 ha        1 MOL      0.089863
    130 H56       -10.3190   -0.0450   -2.8110 ha        1 MOL      0.089863
    131 H57       -11.1850    2.5320    1.3780 ha        1 MOL      0.136040
    132 H58       -12.3730   -0.2320   -1.7360 ha        1 MOL      0.136040
    133 H59       -12.8790    1.1570    0.3350 ha        1 MOL      0.063301
    134 N12        -6.0700   -1.5070   -1.4680 n         1 MOL     -0.043497
    135 C45        -6.1480   -2.9600   -1.1310 c3        1 MOL     -0.013024
    136 C46        -5.4770   -3.2760    0.2560 c         1 MOL      0.273620
    137 O20        -5.8710   -4.2930    0.8850 o         1 MOL     -0.504872
    138 C47        -5.5090   -3.7010   -2.2690 c3        1 MOL      0.001929
    139 C48        -5.6320   -2.6110   -3.3260 c3        1 MOL     -0.263120
    140 C49        -5.2980   -1.3300   -2.6080 c3        1 MOL      0.073821
    141 H60        -7.2070   -3.2240   -1.1520 h1        1 MOL      0.090182
    142 H61        -4.4570   -3.8900   -2.0760 hc        1 MOL      0.041583
    143 H62        -5.9580   -4.6640   -2.5180 hc        1 MOL      0.041583
    144 H63        -4.8900   -2.6140   -4.1150 hc        1 MOL      0.075081
    145 H64        -6.6480   -2.4720   -3.7140 hc        1 MOL      0.075081
    146 H65        -4.2580   -1.3370   -2.2990 h1        1 MOL      0.065702
    147 H66        -5.5540   -0.4220   -3.1460 h1        1 MOL      0.065702
    148 N13        -4.5000   -2.4400    0.6250 n         1 MOL     -0.067188
    149 C50        -3.7880   -2.3820    1.8950 c3        1 MOL      0.005068
    150 C51        -4.5690   -1.6170    3.0010 c         1 MOL      0.386591
    151 O21        -4.5000   -2.1660    4.1700 o         1 MOL     -0.554400
    152 C52        -2.3760   -1.7340    1.6370 c3        1 MOL     -0.016918
    153 C53        -1.4340   -2.5590    0.6890 c3        1 MOL     -0.265212
    154 C54        -0.3010   -1.7040    0.1710 c         1 MOL      0.916943
    155 O22        -0.4990   -0.5050   -0.1330 o         1 MOL     -0.776286
    156 O23         0.8330   -2.1390   -0.0910 o         1 MOL     -0.776286
    157 H67        -4.3970   -1.6160    0.0630 hn        1 MOL      0.110753
    158 H68        -3.5920   -3.3950    2.2350 h1        1 MOL      0.077735
    159 H69        -1.8240   -1.7190    2.5710 hc        1 MOL      0.054418
    160 H70        -2.5870   -0.7720    1.1630 hc        1 MOL      0.054418
    161 H71        -2.0400   -2.9220   -0.1470 hc        1 MOL      0.060886
    162 H72        -1.0600   -3.4400    1.2070 hc        1 MOL      0.060886
    163 N14        -5.2800   -0.4760    2.7650 n         1 MOL     -0.015127
    164 C55        -6.0930    0.1300    3.8070 c3        1 MOL     -0.265030
    165 H73        -6.5760   -0.6540    4.3920 h1        1 MOL      0.097185
    166 H74        -5.4600    0.7300    4.4600 h1        1 MOL      0.097185
    167 H75        -6.8540    0.7650    3.3530 h1        1 MOL      0.097185
    168 H76        -5.3130   -0.0420    1.8510 hn        1 MOL      0.128343
    169 Ca1         1.9380    0.0420   -0.9500 Ca        1 MOL      1.740446
    170 O24         0.4290   -0.6730   -2.9930 oh        1 MOL     -0.831227
    171 H77        -0.2500   -1.2450   -3.3350 ho        1 MOL      0.410752
    172 H78         0.8650   -0.3310   -3.7720 ho        1 MOL      0.410752
    173 O25         1.1680    2.2970   -2.1840 oh        1 MOL     -0.831227
    174 H79         1.3260    3.1660   -1.8240 ho        1 MOL      0.410752
    175 H80         1.3290    2.3800   -3.1270 ho        1 MOL      0.410752
@<TRIPOS>BOND
     1    1    2 1   
     2    1    4 1   
     3    1    5 1   
     4    1    6 1   
     5    2    3 2   
     6    2    7 1   
     7    7    8 1   
     8    7   15 1   
     9    8    9 1   
    10    8   11 1   
    11    8   16 1   
    12    9   10 2   
    13    9   19 1   
    14   11   12 1   
    15   11   17 1   
    16   11   18 1   
    17   12   13 1   
    18   12   14 1   
    19   19   20 1   
    20   19   24 1   
    21   20   21 1   
    22   20   23 1   
    23   20   25 1   
    24   21   22 2   
    25   21   29 1   
    26   23   26 1   
    27   23   27 1   
    28   23   28 1   
    29   29   30 1   
    30   29   37 1   
    31   30   31 1   
    32   30   33 1   
    33   30   38 1   
    34   31   32 2   
    35   31   41 1   
    36   33   34 1   
    37   33   39 1   
    38   33   40 1   
    39   34   35 1   
    40   34   36 1   
    41   41   42 1   
    42   41   45 1   
    43   42   43 1   
    44   42   46 1   
    45   42   47 1   
    46   43   44 2   
    47   43   48 1   
    48   48   49 1   
    49   48   56 1   
    50   49   50 1   
    51   49   52 1   
    52   49   57 1   
    53   50   51 2   
    54   50   62 1   
    55   52   53 1   
    56   52   58 1   
    57   52   59 1   
    58   53   54 1   
    59   53   55 2   
    60   54   60 1   
    61   54   61 1   
    62   62   63 1   
    63   62   66 1   
    64   63   64 1   
    65   63   67 1   
    66   63   68 1   
    67   64   65 2   
    68   64   69 1   
    69   69   70 1   
    70   69   76 1   
    71   70   71 1   
    72   70   73 1   
    73   70   77 1   
    74   71   72 2   
    75   71   83 1   
    76   73   74 1   
    77   73   75 1   
    78   73   78 1   
    79   74   80 1   
    80   74   81 1   
    81   74   82 1   
    82   75   79 1   
    83   83   84 1   
    84   83   91 1   
    85   84   85 1   
    86   84   87 1   
    87   84   92 1   
    88   85   86 2   
    89   85  102 1   
    90   87   88 1   
    91   87   89 1   
    92   87   93 1   
    93   88   90 1   
    94   88   94 1   
    95   88   95 1   
    96   89   96 1   
    97   89   97 1   
    98   89   98 1   
    99   90   99 1   
   100   90  100 1   
   101   90  101 1   
   102  102  103 1   
   103  102  110 1   
   104  103  104 1   
   105  103  106 1   
   106  103  111 1   
   107  104  105 2   
   108  104  114 1   
   109  106  107 1   
   110  106  112 1   
   111  106  113 1   
   112  107  108 1   
   113  107  109 1   
   114  114  115 1   
   115  114  125 1   
   116  115  116 1   
   117  115  118 1   
   118  115  126 1   
   119  116  117 2   
   120  116  134 1   
   121  118  119 1   
   122  118  127 1   
   123  118  128 1   
   124  119  120 ar  
   125  119  121 ar  
   126  120  122 ar  
   127  120  129 1   
   128  121  123 ar  
   129  121  130 1   
   130  122  124 ar  
   131  122  131 1   
   132  123  124 ar  
   133  123  132 1   
   134  124  133 1   
   135  134  135 1   
   136  134  140 1   
   137  135  136 1   
   138  135  138 1   
   139  135  141 1   
   140  136  137 2   
   141  136  148 1   
   142  138  139 1   
   143  138  142 1   
   144  138  143 1   
   145  139  140 1   
   146  139  144 1   
   147  139  145 1   
   148  140  146 1   
   149  140  147 1   
   150  148  149 1   
   151  148  157 1   
   152  149  150 1   
   153  149  152 1   
   154  149  158 1   
   155  150  151 2   
   156  150  163 1   
   157  152  153 1   
   158  152  159 1   
   159  152  160 1   
   160  153  154 1   
   161  153  161 1   
   162  153  162 1   
   163  154  155 1   
   164  154  156 1   
   165  163  164 1   
   166  163  168 1   
   167  164  165 1   
   168  164  166 1   
   169  164  167 1   
   170  170  171 1   
   171  170  172 1   
   172  173  174 1   
   173  173  175 1   
@<TRIPOS>SUBSTRUCTURE
     1 MOL         1 TEMP              0 ****  ****    0 ROOT
