@<TRIPOS>MOLECULE
MOL
  183   181     1     0     0
SMALL
resp


@<TRIPOS>ATOM
      1 C1          0.4610    2.6990    6.0550 c3        1 MOL     -0.229171
      2 C2         -0.2060    2.6090    4.6490 c         1 MOL      0.744697
      3 O1          0.4720    2.9920    3.6970 o         1 MOL     -0.574199
      4 H1          0.0670    1.9080    6.6950 hc        1 MOL      0.049925
      5 H2          1.5400    2.5810    5.9540 hc        1 MOL      0.049925
      6 H3          0.2410    3.6690    6.5010 hc        1 MOL      0.049925
      7 N1         -1.4570    2.1880    4.3830 n         1 MOL     -0.714649
      8 C3         -2.0340    2.0050    3.0190 c3        1 MOL      0.316423
      9 C4         -2.4520    3.4250    2.5210 c         1 MOL      0.675950
     10 O2         -3.0630    4.1660    3.2250 o         1 MOL     -0.599571
     11 C5         -3.2360    1.0990    3.0320 c3        1 MOL     -0.493442
     12 C6         -3.7820    0.7880    1.6780 c         1 MOL      0.855136
     13 O3         -4.7740    0.0590    1.7340 o         1 MOL     -0.675260
     14 O4         -3.2160    1.1980    0.6650 o         1 MOL     -0.675260
     15 H4         -1.9000    1.6550    5.1140 hn        1 MOL      0.315769
     16 H5         -1.2780    1.6320    2.3310 h1        1 MOL     -0.003684
     17 H6         -4.0350    1.5420    3.6110 hc        1 MOL      0.104951
     18 H7         -2.8020    0.2140    3.4970 hc        1 MOL      0.104951
     19 N2         -2.2210    3.7160    1.2330 n         1 MOL     -0.496092
     20 C7         -2.5320    4.9620    0.5170 c3        1 MOL      0.005665
     21 C8         -3.8910    4.9400   -0.1950 c         1 MOL      0.550160
     22 O5         -4.5380    5.9600   -0.4280 o         1 MOL     -0.590575
     23 C9         -1.4520    5.2670   -0.4850 c3        1 MOL      0.196188
     24 C10        -0.0550    5.5590    0.2100 c3        1 MOL     -0.102512
     25 C11        -1.8460    6.5900   -1.2640 c3        1 MOL     -0.266143
     26 C12         1.2300    5.8040   -0.6640 c3        1 MOL     -0.147794
     27 H8         -1.7820    3.0020    0.6630 hn        1 MOL      0.113820
     28 H9         -2.5010    5.7870    1.2360 h1        1 MOL      0.048757
     29 H10        -1.4190    4.4030   -1.1500 hc        1 MOL      0.057896
     30 H11         0.2090    4.7400    0.8740 hc        1 MOL      0.054592
     31 H12        -0.0960    6.4090    0.8920 hc        1 MOL      0.054592
     32 H13        -0.9270    6.7890   -1.8310 hc        1 MOL      0.049567
     33 H14        -2.6680    6.4590   -1.9640 hc        1 MOL      0.049567
     34 H15        -2.0090    7.4410   -0.6060 hc        1 MOL      0.049567
     35 H16         1.3630    5.2340   -1.5890 hc        1 MOL      0.031322
     36 H17         1.2490    6.8390   -0.9970 hc        1 MOL      0.031322
     37 H18         2.1240    5.6310   -0.0680 hc        1 MOL      0.031322
     38 N3         -4.3430    3.7500   -0.5470 n         1 MOL     -0.397007
     39 C13        -5.4030    3.5260   -1.5290 c3        1 MOL      0.031161
     40 C14        -6.5210    2.5920   -1.2550 c         1 MOL      0.413150
     41 O6         -7.5630    2.5900   -1.9580 o         1 MOL     -0.553244
     42 C15        -4.8060    3.2470   -2.9250 c3        1 MOL     -0.202334
     43 C16        -3.7590    2.1830   -2.9220 c         1 MOL      0.792353
     44 O7         -2.6720    2.3160   -3.5370 o         1 MOL     -0.737493
     45 O8         -3.9030    1.1340   -2.2800 o         1 MOL     -0.737493
     46 H19        -3.8480    2.9420   -0.1990 hn        1 MOL      0.330334
     47 H20        -5.8210    4.5190   -1.7170 h1        1 MOL      0.103986
     48 H21        -4.3290    4.1640   -3.2670 hc        1 MOL      0.054740
     49 H22        -5.4990    2.9380   -3.7090 hc        1 MOL      0.054740
     50 N4         -6.4750    1.8190   -0.1770 n         1 MOL     -0.204455
     51 C17        -7.7040    1.2860    0.4490 c3        1 MOL     -0.180476
     52 C18        -8.1180   -0.0420   -0.1460 c         1 MOL      0.391659
     53 O9         -9.3100   -0.4720   -0.0810 o         1 MOL     -0.600494
     54 H23        -5.5700    1.4850    0.1090 hn        1 MOL      0.082340
     55 H24        -8.5270    1.9980    0.3750 h1        1 MOL      0.119817
     56 H25        -7.5810    1.1650    1.5250 h1        1 MOL      0.119817
     57 N5         -7.2380   -0.6570   -0.9060 n         1 MOL     -0.098298
     58 C19        -7.3580   -2.0330   -1.3590 c3        1 MOL     -0.108089
     59 C20        -7.1950   -3.0000   -0.1860 c         1 MOL      0.482274
     60 O10        -7.4060   -4.1890   -0.4080 o         1 MOL     -0.553813
     61 C21        -6.2990   -2.4030   -2.4160 c3        1 MOL     -0.120101
     62 C22        -4.8460   -2.0390   -2.0810 c         1 MOL      0.756571
     63 O11        -3.9800   -2.0260   -2.9680 o         1 MOL     -0.743053
     64 O12        -4.5230   -1.8020   -0.9240 o         1 MOL     -0.743053
     65 H26        -6.3250   -0.2210   -0.9220 hn        1 MOL      0.207510
     66 H27        -8.3360   -2.1280   -1.8410 h1        1 MOL      0.121243
     67 H28        -6.5540   -1.7640   -3.2600 hc        1 MOL      0.030022
     68 H29        -6.3870   -3.4380   -2.7480 hc        1 MOL      0.030022
     69 N6         -6.8080   -2.5660    1.0510 n         1 MOL     -0.324536
     70 C23        -6.6920   -3.3980    2.3230 c3        1 MOL     -0.127078
     71 C24        -5.3190   -4.0840    2.4360 c         1 MOL      0.635195
     72 O13        -5.2290   -4.9950    3.1600 o         1 MOL     -0.609639
     73 H30        -6.4510   -1.6240    1.0610 hn        1 MOL      0.287372
     74 H31        -7.4170   -4.2100    2.3330 h1        1 MOL      0.079047
     75 H32        -6.7790   -2.8590    3.2710 h1        1 MOL      0.079047
     76 N7         -4.3320   -3.7240    1.6200 n         1 MOL     -0.321701
     77 C25        -2.9500   -4.3250    1.6010 c3        1 MOL      0.067544
     78 C26        -1.8900   -3.2350    1.6710 c         1 MOL      0.604033
     79 O14        -2.1760   -2.0560    1.3970 o         1 MOL     -0.624801
     80 C27        -2.8230   -5.3910    0.4910 c3        1 MOL     -0.019800
     81 C28        -2.9510   -4.9370   -0.9050 c3        1 MOL     -0.297496
     82 C29        -1.7510   -4.1860   -1.4910 c         1 MOL      0.580355
     83 N8         -0.8930   -4.7670   -2.2300 n         1 MOL     -0.637246
     84 O15        -1.6490   -3.0030   -1.2930 o         1 MOL     -0.550752
     85 H33        -4.3550   -2.8620    1.0910 hn        1 MOL      0.213707
     86 H34        -2.8480   -4.8660    2.5380 h1        1 MOL      0.021804
     87 H35        -3.5820   -6.1610    0.6620 hc        1 MOL      0.016891
     88 H36        -1.8570   -5.8500    0.7200 hc        1 MOL      0.016891
     89 H37        -3.8610   -4.3590   -1.0030 hc        1 MOL      0.117776
     90 H38        -3.0970   -5.8080   -1.5410 hc        1 MOL      0.117776
     91 H39        -1.0950   -5.7410   -2.3870 hn        1 MOL      0.308330
     92 H40        -0.0600   -4.2870   -2.5550 hn        1 MOL      0.308330
     93 N9         -0.6660   -3.6010    2.1140 n         1 MOL     -0.505133
     94 C30         0.5570   -2.7260    2.1510 c3        1 MOL      0.169823
     95 C31         1.6750   -3.2870    1.2330 c         1 MOL      0.383436
     96 O16         2.1870   -4.3350    1.5180 o         1 MOL     -0.565728
     97 C32         1.1200   -2.5420    3.6050 c3        1 MOL      0.331225
     98 C33         2.4470   -1.9070    3.7710 c3        1 MOL     -0.253062
     99 C34         0.0910   -1.8260    4.5800 c3        1 MOL     -0.253062
    100 H41        -0.4740   -4.5310    2.4640 hn        1 MOL      0.286867
    101 H42         0.2790   -1.7350    1.7870 h1        1 MOL      0.084512
    102 H43         1.2120   -3.5700    3.9530 hc        1 MOL     -0.092288
    103 H44         3.2380   -2.2740    3.1180 hc        1 MOL      0.042217
    104 H45         2.2240   -0.8690    3.5190 hc        1 MOL      0.042217
    105 H46         2.7110   -2.0000    4.8250 hc        1 MOL      0.042217
    106 H47        -0.0720   -0.8420    4.1480 hc        1 MOL      0.042217
    107 H48        -0.8190   -2.4250    4.5590 hc        1 MOL      0.042217
    108 H49         0.4900   -1.7250    5.5900 hc        1 MOL      0.042217
    109 N10         2.0090   -2.5700    0.1440 n         1 MOL     -0.011486
    110 C35         3.1190   -2.7960   -0.7190 c3        1 MOL     -0.032303
    111 C36         4.3730   -2.0890   -0.1090 c         1 MOL      0.528172
    112 O17         4.2470   -1.1760    0.6810 o         1 MOL     -0.362392
    113 C37         2.8280   -2.1990   -2.0990 c3        1 MOL      0.031083
    114 C38         1.8920   -2.9030   -3.0350 c         1 MOL      0.661633
    115 N11         0.8310   -2.2110   -3.3730 n         1 MOL     -0.723176
    116 O18         2.0550   -4.0810   -3.3430 o         1 MOL     -0.608371
    117 H50         1.4460   -1.7500   -0.0400 hn        1 MOL     -0.097216
    118 H51         3.1980   -3.8760   -0.8340 h1        1 MOL      0.051029
    119 H52         3.7370   -2.0740   -2.6850 hc        1 MOL     -0.059778
    120 H53         2.4940   -1.1990   -1.8100 hc        1 MOL     -0.059778
    121 H54         0.6000   -1.3530   -2.9040 hn        1 MOL      0.361889
    122 H55         0.1540   -2.7200   -3.9230 hn        1 MOL      0.361889
    123 N12         5.6010   -2.4560   -0.4760 n         1 MOL     -0.685677
    124 C39         6.7940   -1.7610   -0.0670 c3        1 MOL      0.397397
    125 C40         6.7870   -0.2460   -0.4040 c         1 MOL      0.466317
    126 O19         7.0520    0.5560    0.4720 o         1 MOL     -0.496555
    127 C41         8.1060   -2.3630   -0.7430 c3        1 MOL     -0.276098
    128 C42         9.4230   -1.8380   -0.2560 ca        1 MOL      0.130230
    129 C43         9.8100   -1.8780    1.0820 ca        1 MOL     -0.269741
    130 C44        10.1790   -1.0980   -1.1400 ca        1 MOL     -0.269741
    131 C45        10.8820   -1.1150    1.5550 ca        1 MOL     -0.119584
    132 C46        11.3700   -0.4810   -0.8000 ca        1 MOL     -0.119584
    133 C47        11.7510   -0.5140    0.5690 ca        1 MOL      0.194800
    134 O20        12.9200    0.0070    1.0070 oh        1 MOL     -0.447568
    135 H56         5.6560   -3.1650   -1.2030 hn        1 MOL      0.321339
    136 H57         6.8290   -1.8330    1.0230 h1        1 MOL      0.022823
    137 H58         8.0910   -2.3380   -1.8260 hc        1 MOL      0.074391
    138 H59         8.1730   -3.3880   -0.3780 hc        1 MOL      0.074391
    139 H60         9.2070   -2.4790    1.7460 ha        1 MOL      0.150016
    140 H61         9.8360   -1.0380   -2.1680 ha        1 MOL      0.150016
    141 H62        11.2310   -1.1520    2.5760 ha        1 MOL      0.118823
    142 H63        11.9760   -0.0370   -1.5720 ha        1 MOL      0.118823
    143 H64        13.3890    0.3320    0.2370 ho        1 MOL      0.339395
    144 N13         6.3300    0.2310   -1.5830 n         1 MOL     -0.347383
    145 C48         6.2260    1.6670   -1.8990 c3        1 MOL     -0.025329
    146 C49         5.3490    2.4680   -0.8360 c         1 MOL      0.389988
    147 O21         5.6670    3.6360   -0.5230 o         1 MOL     -0.539726
    148 C50         5.5290    1.7640   -3.2790 c3        1 MOL     -0.242955
    149 C51         4.1290    1.1910   -3.2650 c3        1 MOL     -0.089606
    150 C52         3.5720    0.9110   -4.6680 c         1 MOL      0.648868
    151 O22         4.0530   -0.1150   -5.3460 o         1 MOL     -0.711326
    152 O23         2.7330    1.6710   -5.2850 o         1 MOL     -0.711326
    153 H65         6.1610   -0.4650   -2.2950 hn        1 MOL      0.274879
    154 H66         7.2240    2.0880   -1.9680 h1        1 MOL      0.071138
    155 H67         6.1540    1.2000   -3.9520 hc        1 MOL      0.081323
    156 H68         5.3710    2.7760   -3.6470 hc        1 MOL      0.081323
    157 H69         3.4710    1.9150   -2.7810 hc        1 MOL      0.045469
    158 H70         4.0210    0.3260   -2.6100 hc        1 MOL      0.045469
    159 N14         4.3630    1.8020   -0.2150 n         1 MOL     -0.023610
    160 C53         3.5750    2.3780    0.8350 c3        1 MOL     -0.179857
    161 C54         4.2190    2.3110    2.1710 c         1 MOL      0.528404
    162 O24         4.1020    3.3040    2.9100 o         1 MOL     -0.562130
    163 C55         2.2360    1.7200    0.7970 c3        1 MOL      0.059565
    164 C56         1.4570    1.8760   -0.5460 c3        1 MOL      0.495133
    165 C57         0.2030    1.0500   -0.6720 c         1 MOL      0.410570
    166 O25        -0.9040    1.6410   -0.8030 o         1 MOL     -0.578936
    167 O26         0.2910   -0.1810   -0.8020 o         1 MOL     -0.578936
    168 H71         4.1570    0.8310   -0.4230 hn        1 MOL      0.169646
    169 H72         3.3190    3.4220    0.6620 h1        1 MOL      0.127769
    170 H73         1.6770    2.2530    1.5660 hc        1 MOL     -0.045018
    171 H74         2.2540    0.6530    1.0000 hc        1 MOL     -0.045018
    172 H75         2.0700    1.6340   -1.4090 hc        1 MOL     -0.127566
    173 H76         1.2110    2.9230   -0.7280 hc        1 MOL     -0.127566
    174 N15         4.8200    1.1690    2.5070 n         1 MOL     -0.199585
    175 C58         5.7870    1.1110    3.6100 c3        1 MOL     -0.152827
    176 H77         5.4310    0.4140    4.3680 h1        1 MOL      0.065989
    177 H78         6.7510    0.7740    3.2300 h1        1 MOL      0.065989
    178 H79         5.8950    2.1020    4.0510 h1        1 MOL      0.065989
    179 H80         4.8380    0.4050    1.8410 hn        1 MOL      0.130197
    180 Ca1        -2.3800   -0.4540   -1.0810 Ca        1 MOL      1.722027
    181 O27        -1.1720    0.0590   -3.4540 oh        1 MOL     -0.967020
    182 H81        -0.6880    0.1010   -4.2720 ho        1 MOL      0.456831
    183 H82        -1.8040    0.7900   -3.5130 ho        1 MOL      0.456831
@<TRIPOS>BOND
     1    1    2 1   
     2    1    4 1   
     3    1    5 1   
     4    1    6 1   
     5    2    3 2   
     6    2    7 1   
     7    7    8 1   
     8    7   15 1   
     9    8    9 1   
    10    8   11 1   
    11    8   16 1   
    12    9   10 2   
    13    9   19 1   
    14   11   12 1   
    15   11   17 1   
    16   11   18 1   
    17   12   13 1   
    18   12   14 1   
    19   19   20 1   
    20   19   27 1   
    21   20   21 1   
    22   20   23 1   
    23   20   28 1   
    24   21   22 2   
    25   21   38 1   
    26   23   24 1   
    27   23   25 1   
    28   23   29 1   
    29   24   26 1   
    30   24   30 1   
    31   24   31 1   
    32   25   32 1   
    33   25   33 1   
    34   25   34 1   
    35   26   35 1   
    36   26   36 1   
    37   26   37 1   
    38   38   39 1   
    39   38   46 1   
    40   39   40 1   
    41   39   42 1   
    42   39   47 1   
    43   40   41 2   
    44   40   50 1   
    45   42   43 1   
    46   42   48 1   
    47   42   49 1   
    48   43   44 1   
    49   43   45 1   
    50   50   51 1   
    51   50   54 1   
    52   51   52 1   
    53   51   55 1   
    54   51   56 1   
    55   52   53 2   
    56   52   57 1   
    57   57   58 1   
    58   57   65 1   
    59   58   59 1   
    60   58   61 1   
    61   58   66 1   
    62   59   60 2   
    63   59   69 1   
    64   61   62 1   
    65   61   67 1   
    66   61   68 1   
    67   62   63 1   
    68   62   64 1   
    69   69   70 1   
    70   69   73 1   
    71   70   71 1   
    72   70   74 1   
    73   70   75 1   
    74   71   72 2   
    75   71   76 1   
    76   76   77 1   
    77   76   85 1   
    78   77   78 1   
    79   77   80 1   
    80   77   86 1   
    81   78   79 2   
    82   78   93 1   
    83   80   81 1   
    84   80   87 1   
    85   80   88 1   
    86   81   82 1   
    87   81   89 1   
    88   81   90 1   
    89   82   83 1   
    90   82   84 2   
    91   83   91 1   
    92   83   92 1   
    93   93   94 1   
    94   93  100 1   
    95   94   95 1   
    96   94   97 1   
    97   94  101 1   
    98   95   96 2   
    99   95  109 1   
   100   97   98 1   
   101   97   99 1   
   102   97  102 1   
   103   98  103 1   
   104   98  104 1   
   105   98  105 1   
   106   99  106 1   
   107   99  107 1   
   108   99  108 1   
   109  109  110 1   
   110  109  117 1   
   111  110  111 1   
   112  110  113 1   
   113  110  118 1   
   114  111  112 2   
   115  111  123 1   
   116  113  114 1   
   117  113  119 1   
   118  113  120 1   
   119  114  115 1   
   120  114  116 2   
   121  115  121 1   
   122  115  122 1   
   123  123  124 1   
   124  123  135 1   
   125  124  125 1   
   126  124  127 1   
   127  124  136 1   
   128  125  126 2   
   129  125  144 1   
   130  127  128 1   
   131  127  137 1   
   132  127  138 1   
   133  128  129 ar  
   134  128  130 ar  
   135  129  131 ar  
   136  129  139 1   
   137  130  132 ar  
   138  130  140 1   
   139  131  133 ar  
   140  131  141 1   
   141  132  133 ar  
   142  132  142 1   
   143  133  134 1   
   144  134  143 1   
   145  144  145 1   
   146  144  153 1   
   147  145  146 1   
   148  145  148 1   
   149  145  154 1   
   150  146  147 2   
   151  146  159 1   
   152  148  149 1   
   153  148  155 1   
   154  148  156 1   
   155  149  150 1   
   156  149  157 1   
   157  149  158 1   
   158  150  151 1   
   159  150  152 1   
   160  159  160 1   
   161  159  168 1   
   162  160  161 1   
   163  160  163 1   
   164  160  169 1   
   165  161  162 2   
   166  161  174 1   
   167  163  164 1   
   168  163  170 1   
   169  163  171 1   
   170  164  165 1   
   171  164  172 1   
   172  164  173 1   
   173  165  166 1   
   174  165  167 1   
   175  174  175 1   
   176  174  179 1   
   177  175  176 1   
   178  175  177 1   
   179  175  178 1   
   180  181  182 1   
   181  181  183 1   
@<TRIPOS>SUBSTRUCTURE
     1 MOL         1 TEMP              0 ****  ****    0 ROOT
