@<TRIPOS>MOLECULE
MOL
  176   174     1     0     0
SMALL
resp


@<TRIPOS>ATOM
      1 C1          0.3120   -5.7120    5.5970 c3        1 MOL     -0.356635
      2 C2          0.3540   -5.0400    4.2090 c         1 MOL      0.652420
      3 O1         -0.4500   -5.3990    3.3320 o         1 MOL     -0.569269
      4 H1          0.9330   -6.6080    5.5860 hc        1 MOL      0.101894
      5 H2          0.6910   -5.0180    6.3490 hc        1 MOL      0.101894
      6 H3         -0.7150   -5.9850    5.8380 hc        1 MOL      0.101894
      7 N1          1.3370   -4.1530    3.8720 n         1 MOL     -0.624719
      8 C3          1.3510   -3.5670    2.5110 c3        1 MOL      0.279381
      9 C4          1.4350   -4.6870    1.4730 c         1 MOL      0.468769
     10 O2          2.0940   -5.6830    1.5660 o         1 MOL     -0.565186
     11 C5          2.5980   -2.6360    2.3970 c3        1 MOL     -0.381063
     12 C6          2.7680   -1.8100    1.1050 c         1 MOL      1.024688
     13 O3          2.8210   -2.4120    0.0010 o         1 MOL     -0.896203
     14 O4          2.9280   -0.5420    1.0730 o         1 MOL     -0.896203
     15 H4          1.9950   -3.8430    4.5720 hn        1 MOL      0.342368
     16 H5          0.4340   -3.0020    2.3460 h1        1 MOL     -0.001018
     17 H6          3.4630   -3.2380    2.6870 hc        1 MOL      0.093295
     18 H7          2.4040   -1.8630    3.1380 hc        1 MOL      0.093295
     19 N2          0.6720   -4.5180    0.3790 n         1 MOL      0.006262
     20 C7          0.5060   -5.4810   -0.7570 c3        1 MOL     -0.135683
     21 C8          1.6860   -5.4140   -1.7680 c         1 MOL      0.723263
     22 O5          1.7390   -6.4100   -2.5290 o         1 MOL     -0.577300
     23 C9         -0.8160   -5.1810   -1.4170 c3        1 MOL     -0.040550
     24 C10        -2.0580   -5.3180   -0.4740 c3        1 MOL     -0.032759
     25 C11        -2.1000   -6.5980    0.3820 c3        1 MOL     -0.183379
     26 C12        -3.3310   -6.5010    1.1910 c3        1 MOL      0.119492
     27 N3         -3.5580   -7.6660    2.0380 n4        1 MOL     -0.501441
     28 H8          0.1420   -3.6640    0.3090 hn        1 MOL      0.097083
     29 H9          0.5300   -6.4680   -0.2900 h1        1 MOL      0.053829
     30 H10        -0.9220   -5.8290   -2.2830 hc        1 MOL      0.048555
     31 H11        -0.8120   -4.1410   -1.7710 hc        1 MOL      0.048555
     32 H12        -3.0120   -5.2070   -1.0030 hc        1 MOL      0.036390
     33 H13        -2.0020   -4.5220    0.2680 hc        1 MOL      0.036390
     34 H14        -1.2830   -6.6470    1.0950 hc        1 MOL      0.086941
     35 H15        -2.1840   -7.4080   -0.3470 hc        1 MOL      0.086941
     36 H16        -4.2320   -6.4170    0.5720 hx        1 MOL      0.064509
     37 H17        -3.2230   -5.5250    1.6670 hx        1 MOL      0.064509
     38 H18        -4.3260   -7.3870    2.6410 hn        1 MOL      0.363804
     39 H19        -3.8010   -8.4860    1.4900 hn        1 MOL      0.363804
     40 H20        -2.8000   -7.8140    2.6800 hn        1 MOL      0.363804
     41 N4          2.7080   -4.4850   -1.7430 n         1 MOL     -0.685639
     42 C13         3.6700   -4.2870   -2.8590 c3        1 MOL      0.097496
     43 C14         5.0260   -3.6970   -2.4270 c         1 MOL      0.437420
     44 O6          5.9590   -3.5850   -3.1810 o         1 MOL     -0.559773
     45 C15         3.1280   -3.3850   -3.9340 c3        1 MOL     -0.129823
     46 C16         2.5640   -2.0940   -3.3890 c         1 MOL      0.694343
     47 O7          1.3020   -2.0140   -3.2050 o         1 MOL     -0.757215
     48 O8          3.2540   -1.1820   -2.8390 o         1 MOL     -0.757215
     49 H21         2.6420   -3.7110   -1.1090 hn        1 MOL      0.356862
     50 H22         3.8680   -5.2570   -3.3120 h1        1 MOL      0.097194
     51 H23         2.3390   -3.9030   -4.4720 hc        1 MOL      0.047767
     52 H24         3.8770   -3.1770   -4.6990 hc        1 MOL      0.047767
     53 N5          5.1060   -3.3570   -1.1870 n         1 MOL     -0.209743
     54 C17         6.3370   -2.9860   -0.4630 c3        1 MOL     -0.170505
     55 C18         6.6960   -1.5370   -0.2840 c         1 MOL      0.487103
     56 O9          7.5350   -1.1800    0.5380 o         1 MOL     -0.571495
     57 H25         4.2800   -3.4230   -0.6140 hn        1 MOL      0.241239
     58 H26         7.1600   -3.3920   -1.0520 h1        1 MOL      0.117553
     59 H27         6.3440   -3.6190    0.4270 h1        1 MOL      0.117553
     60 N6          6.0670   -0.5630   -1.0000 n         1 MOL     -0.228437
     61 C19         6.5380    0.8130   -1.1340 c3        1 MOL     -0.027009
     62 C20         6.3290    1.7280    0.0350 c         1 MOL      0.281773
     63 O10         6.6470    2.9110   -0.0140 o         1 MOL     -0.409326
     64 C21         6.0410    1.4080   -2.4400 c3        1 MOL     -0.312053
     65 C22         4.5040    1.6710   -2.4600 c         1 MOL      0.688492
     66 N7          3.9630    2.4680   -3.3620 n         1 MOL     -0.695265
     67 O11         3.8120    1.1710   -1.6340 o         1 MOL     -0.488975
     68 H28         5.2850   -0.8150   -1.5880 hn        1 MOL      0.241962
     69 H29         7.6140    0.6440   -1.0790 h1        1 MOL      0.141315
     70 H30         6.2310    0.7000   -3.2470 hc        1 MOL      0.104589
     71 H31         6.6900    2.2820   -2.5340 hc        1 MOL      0.104589
     72 H32         4.5940    2.8010   -4.0720 hn        1 MOL      0.325808
     73 H33         3.0360    2.1620   -3.5930 hn        1 MOL      0.325808
     74 N8          5.8310    1.2680    1.1730 n         1 MOL     -0.239068
     75 C23         5.5930    2.0430    2.4150 c3        1 MOL     -0.046662
     76 C24         4.2830    2.8710    2.4010 c         1 MOL      0.370855
     77 O12         4.1140    3.7460    3.2780 o         1 MOL     -0.568331
     78 H34         5.5700    0.3030    1.2120 hn        1 MOL      0.274790
     79 H35         6.4290    2.7000    2.6950 h1        1 MOL      0.094406
     80 H36         5.6110    1.3640    3.2700 h1        1 MOL      0.094406
     81 N9          3.4030    2.8180    1.4150 n         1 MOL      0.046502
     82 C25         2.1620    3.6540    1.3930 c3        1 MOL      0.041750
     83 C26         0.9490    2.7670    1.1520 c         1 MOL      0.169842
     84 O13         1.0830    1.7080    0.5070 o         1 MOL     -0.362036
     85 C27         2.3620    4.6780    0.2850 c3        1 MOL      0.093949
     86 C28         3.4640    5.7820    0.4550 ca        1 MOL      0.218154
     87 C29         4.7480    5.5140    0.0410 ca        1 MOL     -0.336098
     88 C30         3.1260    7.0760    0.8610 ca        1 MOL     -0.336098
     89 C31         5.7710    6.4500    0.0870 ca        1 MOL     -0.116677
     90 C32         4.1330    8.0710    0.9130 ca        1 MOL     -0.116677
     91 C33         5.4510    7.7310    0.5500 ca        1 MOL      0.233326
     92 O14         6.4500    8.5980    0.6740 oh        1 MOL     -0.433519
     93 H37         3.5010    2.0360    0.7860 hn        1 MOL      0.065100
     94 H38         2.0270    4.2890    2.2680 h1        1 MOL      0.056244
     95 H39         1.4630    5.2570    0.1090 hc        1 MOL     -0.042129
     96 H40         2.6570    4.1300   -0.6130 hc        1 MOL     -0.042129
     97 H41         4.9770    4.5550   -0.3950 ha        1 MOL      0.151074
     98 H42         2.1300    7.2530    1.2410 ha        1 MOL      0.151074
     99 H43         6.7640    6.2300   -0.2660 ha        1 MOL      0.107588
    100 H44         3.8440    9.1000    1.0690 ha        1 MOL      0.107588
    101 H45         6.1400    9.3850    1.1380 ho        1 MOL      0.334265
    102 N10        -0.2510    3.0970    1.6510 n         1 MOL     -0.210039
    103 C34        -1.5930    2.4770    1.2250 c3        1 MOL     -0.104694
    104 C35        -2.6000    3.5010    0.6930 c         1 MOL      0.408895
    105 O15        -2.8380    4.5460    1.3900 o         1 MOL     -0.528751
    106 C36        -2.1620    1.5270    2.3650 c3        1 MOL      0.011417
    107 C37        -2.4990    2.4910    3.5330 c3        1 MOL      0.150109
    108 C38        -1.1980    0.4430    2.7360 c3        1 MOL     -0.368665
    109 C39        -2.9860    1.6590    4.7830 c3        1 MOL     -0.397143
    110 H46        -0.2600    3.8530    2.3180 hn        1 MOL      0.268928
    111 H47        -1.3170    1.8090    0.4110 h1        1 MOL      0.112917
    112 H48        -3.1370    1.1400    2.0830 hc        1 MOL      0.066184
    113 H49        -3.3450    3.1540    3.3670 hc        1 MOL      0.009897
    114 H50        -1.6630    3.1460    3.7220 hc        1 MOL      0.009897
    115 H51        -0.7250    0.0320    1.8370 hc        1 MOL      0.100791
    116 H52        -0.3960    0.7610    3.3880 hc        1 MOL      0.100791
    117 H53        -1.7940   -0.3560    3.1730 hc        1 MOL      0.100791
    118 H54        -2.1390    1.0450    5.0840 hc        1 MOL      0.093136
    119 H55        -3.3260    2.3340    5.5750 hc        1 MOL      0.093136
    120 H56        -3.8730    1.1350    4.4380 hc        1 MOL      0.093136
    121 N11        -3.2150    3.1810   -0.4280 n         1 MOL     -0.285902
    122 C40        -4.3800    3.8210   -1.0010 c3        1 MOL      0.019068
    123 C41        -5.6350    3.4250   -0.2280 c         1 MOL      0.492541
    124 O16        -5.6470    2.4080    0.4230 o         1 MOL     -0.361736
    125 C42        -4.5190    3.5310   -2.5320 c3        1 MOL     -0.022382
    126 O17        -4.6370    2.1510   -2.6650 oh        1 MOL     -0.437776
    127 H57        -2.8100    2.3360   -0.8170 hn        1 MOL      0.259583
    128 H58        -4.3240    4.8870   -0.8040 h1        1 MOL      0.080273
    129 H59        -3.7120    4.0730   -3.0260 h1        1 MOL      0.056517
    130 H60        -5.4880    3.9530   -2.8330 h1        1 MOL      0.056517
    131 H61        -4.6260    2.0360   -3.6250 ho        1 MOL      0.389443
    132 N12        -6.7580    4.0950   -0.4190 n         1 MOL     -0.524890
    133 C43        -8.0670    3.5680   -0.0440 c3        1 MOL      0.251613
    134 C44        -8.4340    2.2680   -0.7660 c         1 MOL      0.402703
    135 O18        -9.2500    1.4770   -0.3010 o         1 MOL     -0.507408
    136 C45        -9.2420    4.5340   -0.3270 c3        1 MOL     -0.328101
    137 H62        -6.7730    4.8680   -1.0750 hn        1 MOL      0.287841
    138 H63        -8.0820    3.3510    1.0230 h1        1 MOL      0.065678
    139 H64        -9.5320    4.3990   -1.3730 hc        1 MOL      0.097237
    140 H65       -10.0020    4.1040    0.3210 hc        1 MOL      0.097237
    141 H66        -8.9930    5.5460    0.0030 hc        1 MOL      0.097237
    142 N13        -7.8030    1.9330   -1.8920 n         1 MOL     -0.302810
    143 C46        -8.1130    0.6610   -2.5380 c3        1 MOL      0.088688
    144 C47        -7.2800   -0.5170   -1.8140 c         1 MOL      0.354872
    145 O19        -7.8000   -1.6430   -1.7050 o         1 MOL     -0.497750
    146 C48        -7.8500    0.7820   -4.0780 c3        1 MOL     -0.218699
    147 H67        -7.3760    2.6660   -2.4440 hn        1 MOL      0.250057
    148 H68        -9.1300    0.3090   -2.4580 h1        1 MOL      0.105216
    149 H69        -8.4690    1.5340   -4.5580 hc        1 MOL      0.061137
    150 H70        -6.8600    1.2100   -4.2390 hc        1 MOL      0.061137
    151 H71        -7.9790   -0.1150   -4.6670 hc        1 MOL      0.061137
    152 N14        -6.0520   -0.2040   -1.3360 n         1 MOL     -0.053995
    153 C49        -5.1100   -1.1410   -0.5970 c3        1 MOL     -0.118767
    154 C50        -5.3530   -1.3450    0.8730 c         1 MOL      0.491845
    155 O20        -5.3520   -2.4210    1.4060 o         1 MOL     -0.570971
    156 C51        -3.6780   -0.6550   -0.7280 c3        1 MOL     -0.006518
    157 C52        -2.6070   -1.6500   -0.2320 c3        1 MOL     -0.322483
    158 C53        -1.1940   -1.0980   -0.5580 c         1 MOL      0.955554
    159 O21        -1.0120   -0.0930   -1.2400 o         1 MOL     -0.816707
    160 O22        -0.1820   -1.6320   -0.0790 o         1 MOL     -0.816707
    161 H72        -5.6600    0.6840   -1.6200 hn        1 MOL     -0.008533
    162 H73        -5.2650   -2.1240   -1.0480 h1        1 MOL      0.101974
    163 H74        -3.4930    0.2940   -0.2230 hc        1 MOL      0.043835
    164 H75        -3.4590   -0.7520   -1.7940 hc        1 MOL      0.043835
    165 H76        -2.6490   -2.5810   -0.7940 hc        1 MOL      0.086367
    166 H77        -2.7000   -1.9130    0.8210 hc        1 MOL      0.086367
    167 N15        -5.9310   -0.2870    1.5230 n         1 MOL     -0.007692
    168 C54        -6.4280   -0.1730    2.9080 c3        1 MOL     -0.305368
    169 H78        -6.9520    0.7750    3.0290 h1        1 MOL      0.115429
    170 H79        -7.1120   -0.9960    3.1170 h1        1 MOL      0.115429
    171 H80        -5.5880   -0.2130    3.6000 h1        1 MOL      0.115429
    172 H81        -5.9090    0.5690    0.9900 hn        1 MOL      0.011629
    173 Ca1         1.6360   -0.2880   -1.0930 Ca        1 MOL      1.708458
    174 O23         0.9720    2.1260   -2.4910 oh        1 MOL     -0.813394
    175 H82         0.3760    1.9030   -3.2020 ho        1 MOL      0.408853
    176 H83         0.6140    2.9160   -2.1020 ho        1 MOL      0.408853
@<TRIPOS>BOND
     1    1    2 1   
     2    1    4 1   
     3    1    5 1   
     4    1    6 1   
     5    2    3 2   
     6    2    7 1   
     7    7    8 1   
     8    7   15 1   
     9    8    9 1   
    10    8   11 1   
    11    8   16 1   
    12    9   10 2   
    13    9   19 1   
    14   11   12 1   
    15   11   17 1   
    16   11   18 1   
    17   12   13 1   
    18   12   14 1   
    19   19   20 1   
    20   19   28 1   
    21   20   21 1   
    22   20   23 1   
    23   20   29 1   
    24   21   22 2   
    25   21   41 1   
    26   23   24 1   
    27   23   30 1   
    28   23   31 1   
    29   24   25 1   
    30   24   32 1   
    31   24   33 1   
    32   25   26 1   
    33   25   34 1   
    34   25   35 1   
    35   26   27 1   
    36   26   36 1   
    37   26   37 1   
    38   27   38 1   
    39   27   39 1   
    40   27   40 1   
    41   41   42 1   
    42   41   49 1   
    43   42   43 1   
    44   42   45 1   
    45   42   50 1   
    46   43   44 2   
    47   43   53 1   
    48   45   46 1   
    49   45   51 1   
    50   45   52 1   
    51   46   47 1   
    52   46   48 1   
    53   53   54 1   
    54   53   57 1   
    55   54   55 1   
    56   54   58 1   
    57   54   59 1   
    58   55   56 2   
    59   55   60 1   
    60   60   61 1   
    61   60   68 1   
    62   61   62 1   
    63   61   64 1   
    64   61   69 1   
    65   62   63 2   
    66   62   74 1   
    67   64   65 1   
    68   64   70 1   
    69   64   71 1   
    70   65   66 1   
    71   65   67 2   
    72   66   72 1   
    73   66   73 1   
    74   74   75 1   
    75   74   78 1   
    76   75   76 1   
    77   75   79 1   
    78   75   80 1   
    79   76   77 2   
    80   76   81 1   
    81   81   82 1   
    82   81   93 1   
    83   82   83 1   
    84   82   85 1   
    85   82   94 1   
    86   83   84 2   
    87   83  102 1   
    88   85   86 1   
    89   85   95 1   
    90   85   96 1   
    91   86   87 ar  
    92   86   88 ar  
    93   87   89 ar  
    94   87   97 1   
    95   88   90 ar  
    96   88   98 1   
    97   89   91 ar  
    98   89   99 1   
    99   90   91 ar  
   100   90  100 1   
   101   91   92 1   
   102   92  101 1   
   103  102  103 1   
   104  102  110 1   
   105  103  104 1   
   106  103  106 1   
   107  103  111 1   
   108  104  105 2   
   109  104  121 1   
   110  106  107 1   
   111  106  108 1   
   112  106  112 1   
   113  107  109 1   
   114  107  113 1   
   115  107  114 1   
   116  108  115 1   
   117  108  116 1   
   118  108  117 1   
   119  109  118 1   
   120  109  119 1   
   121  109  120 1   
   122  121  122 1   
   123  121  127 1   
   124  122  123 1   
   125  122  125 1   
   126  122  128 1   
   127  123  124 2   
   128  123  132 1   
   129  125  126 1   
   130  125  129 1   
   131  125  130 1   
   132  126  131 1   
   133  132  133 1   
   134  132  137 1   
   135  133  134 1   
   136  133  136 1   
   137  133  138 1   
   138  134  135 2   
   139  134  142 1   
   140  136  139 1   
   141  136  140 1   
   142  136  141 1   
   143  142  143 1   
   144  142  147 1   
   145  143  144 1   
   146  143  146 1   
   147  143  148 1   
   148  144  145 2   
   149  144  152 1   
   150  146  149 1   
   151  146  150 1   
   152  146  151 1   
   153  152  153 1   
   154  152  161 1   
   155  153  154 1   
   156  153  156 1   
   157  153  162 1   
   158  154  155 2   
   159  154  167 1   
   160  156  157 1   
   161  156  163 1   
   162  156  164 1   
   163  157  158 1   
   164  157  165 1   
   165  157  166 1   
   166  158  159 1   
   167  158  160 1   
   168  167  168 1   
   169  167  172 1   
   170  168  169 1   
   171  168  170 1   
   172  168  171 1   
   173  174  175 1   
   174  174  176 1   
@<TRIPOS>SUBSTRUCTURE
     1 MOL         1 TEMP              0 ****  ****    0 ROOT
