@<TRIPOS>MOLECULE
MOL
  176   174     1     0     0
SMALL
resp


@<TRIPOS>ATOM
      1 C1          1.9520    2.7490    6.2770 c3        1 MOL     -0.402710
      2 C2          1.6860    2.6010    4.8350 c         1 MOL      0.678774
      3 O1          2.5230    2.0410    4.0860 o         1 MOL     -0.559225
      4 H1          1.1120    3.2560    6.7510 hc        1 MOL      0.108655
      5 H2          2.0810    1.7650    6.7260 hc        1 MOL      0.108655
      6 H3          2.8590    3.3360    6.4220 hc        1 MOL      0.108655
      7 N1          0.5500    3.1020    4.3050 n         1 MOL     -0.511140
      8 C3          0.0520    2.8770    2.9540 c3        1 MOL      0.077794
      9 C4          0.1000    4.2140    2.1870 c         1 MOL      0.580901
     10 O2         -0.0810    5.2480    2.8280 o         1 MOL     -0.563914
     11 C5         -1.4430    2.4350    3.0880 c3        1 MOL     -0.392774
     12 C6         -1.9020    1.7220    1.8680 c         1 MOL      1.046322
     13 O3         -2.1750    0.5550    1.8600 o         1 MOL     -0.859159
     14 O4         -2.0680    2.3030    0.7900 o         1 MOL     -0.859159
     15 H4         -0.1520    3.4870    4.9300 hn        1 MOL      0.311195
     16 H5          0.5640    2.0440    2.4700 h1        1 MOL     -0.033752
     17 H6         -2.0220    3.3580    3.1910 hc        1 MOL      0.095997
     18 H7         -1.5590    1.8210    3.9770 hc        1 MOL      0.095997
     19 N2          0.1890    4.1590    0.8600 n         1 MOL     -0.375679
     20 C7          0.3970    5.2830   -0.0240 c3        1 MOL      0.104885
     21 C8         -0.7770    5.5970   -0.9130 c         1 MOL      0.429052
     22 O5         -0.6530    6.4840   -1.7250 o         1 MOL     -0.563391
     23 C9          1.7090    5.1250   -0.8690 c3        1 MOL      0.050176
     24 C10         2.4970    6.3930   -1.1650 c3        1 MOL     -0.047206
     25 C11         3.7620    6.2050   -2.1110 c3        1 MOL     -0.046884
     26 C12         4.6330    7.4920   -2.1600 c3        1 MOL      0.093189
     27 N3          5.9600    7.2840   -2.7430 n4        1 MOL     -0.341683
     28 H8          0.1780    3.2280    0.4750 hn        1 MOL      0.323647
     29 H9          0.5750    6.1780    0.5740 h1        1 MOL      0.019540
     30 H10         1.3930    4.8120   -1.8600 hc        1 MOL      0.022760
     31 H11         2.2930    4.3250   -0.4280 hc        1 MOL      0.022760
     32 H12         2.9170    6.7730   -0.2420 hc        1 MOL      0.030421
     33 H13         1.8640    7.0790   -1.7270 hc        1 MOL      0.030421
     34 H14         3.3520    5.9320   -3.0830 hc        1 MOL      0.033352
     35 H15         4.3910    5.3990   -1.7330 hc        1 MOL      0.033352
     36 H16         4.8060    7.8180   -1.1350 hx        1 MOL      0.064036
     37 H17         4.0790    8.3020   -2.6340 hx        1 MOL      0.064036
     38 H18         5.9110    6.9360   -3.6880 hn        1 MOL      0.321440
     39 H19         6.4160    8.1860   -2.8150 hn        1 MOL      0.321440
     40 H20         6.5130    6.6110   -2.2240 hn        1 MOL      0.321440
     41 N4         -1.7660    4.7980   -0.8580 n         1 MOL     -0.195262
     42 C13        -3.0390    4.9450   -1.6200 c3        1 MOL      0.037842
     43 C14        -4.3630    4.5710   -0.8070 c         1 MOL      0.468404
     44 O6         -5.3660    5.2710   -1.1500 o         1 MOL     -0.549816
     45 C15        -2.8870    3.9700   -2.7770 c3        1 MOL     -0.194811
     46 C16        -2.4100    2.5380   -2.3310 c         1 MOL      0.711627
     47 O7         -3.2840    1.8340   -1.7250 o         1 MOL     -0.729119
     48 O8         -1.3360    1.9940   -2.7170 o         1 MOL     -0.729119
     49 H21        -1.7570    4.0680   -0.1560 hn        1 MOL      0.078404
     50 H22        -3.1970    5.9610   -1.9610 h1        1 MOL      0.083167
     51 H23        -2.1210    4.4410   -3.3930 hc        1 MOL      0.064365
     52 H24        -3.8550    3.9040   -3.2590 hc        1 MOL      0.064365
     53 N5         -4.3300    3.6720    0.1430 n         1 MOL     -0.318994
     54 C17        -5.4910    3.3150    0.9500 c3        1 MOL     -0.173037
     55 C18        -6.4350    2.2910    0.3560 c         1 MOL      0.666102
     56 O9         -7.5730    2.3170    0.7400 o         1 MOL     -0.601361
     57 H25        -3.5310    3.0620    0.2340 hn        1 MOL      0.341060
     58 H26        -6.1430    4.1730    1.1090 h1        1 MOL      0.095185
     59 H27        -5.0520    2.9100    1.8670 h1        1 MOL      0.095185
     60 N6         -5.9640    1.3570   -0.4800 n         1 MOL     -0.283040
     61 C19        -6.7740    0.3270   -1.1940 c3        1 MOL     -0.049988
     62 C20        -7.0100   -0.8560   -0.2860 c         1 MOL      0.441272
     63 O10        -7.5930   -1.8570   -0.7460 o         1 MOL     -0.520321
     64 C21        -5.9950   -0.0310   -2.5090 c3        1 MOL     -0.225341
     65 C22        -4.7180   -0.7730   -2.3380 c         1 MOL      0.770921
     66 N7         -4.1290   -1.1580   -3.4850 n         1 MOL     -0.796767
     67 O11        -4.2170   -1.0330   -1.2840 o         1 MOL     -0.666901
     68 H28        -4.9970    1.4330   -0.7520 hn        1 MOL      0.125211
     69 H29        -7.7150    0.7320   -1.5680 h1        1 MOL      0.139938
     70 H30        -5.7270    0.8850   -3.0200 hc        1 MOL      0.089449
     71 H31        -6.5850   -0.5970   -3.2280 hc        1 MOL      0.089449
     72 H32        -4.5530   -0.8150   -4.3260 hn        1 MOL      0.372089
     73 H33        -3.2870   -1.7190   -3.4340 hn        1 MOL      0.372089
     74 N8         -6.5150   -0.9280    0.9600 n         1 MOL     -0.296803
     75 C23        -6.5250   -2.0680    1.7890 c3        1 MOL     -0.019643
     76 C24        -5.3010   -2.7930    2.2580 c         1 MOL      0.613762
     77 O12        -5.3440   -3.4120    3.3100 o         1 MOL     -0.598310
     78 H34        -6.1030   -0.1350    1.4300 hn        1 MOL      0.247055
     79 H35        -7.2150   -2.7430    1.2740 h1        1 MOL      0.065446
     80 H36        -7.0260   -1.7680    2.7060 h1        1 MOL      0.065446
     81 N9         -4.2720   -2.9030    1.4590 n         1 MOL     -0.603235
     82 C25        -3.1470   -3.8310    1.7140 c3        1 MOL      0.310010
     83 C26        -1.7800   -3.2160    1.3880 c         1 MOL      0.624269
     84 O13        -1.7440   -2.3550    0.5510 o         1 MOL     -0.678557
     85 C27        -3.5700   -5.1430    1.0300 c3        1 MOL     -0.367007
     86 C28        -3.7780   -4.9680   -0.4850 ca        1 MOL      0.220410
     87 C29        -2.7420   -4.7360   -1.4240 ca        1 MOL     -0.219245
     88 C30        -5.0610   -5.1620   -0.9280 ca        1 MOL     -0.219245
     89 C31        -3.0240   -4.5430   -2.8010 ca        1 MOL     -0.250566
     90 C32        -5.3620   -5.0280   -2.3530 ca        1 MOL     -0.250566
     91 C33        -4.3590   -4.6610   -3.2360 ca        1 MOL      0.332572
     92 O14        -4.6970   -4.5610   -4.5820 oh        1 MOL     -0.533491
     93 H37        -4.3150   -2.5390    0.5150 hn        1 MOL      0.372343
     94 H38        -2.9950   -4.0080    2.7750 h1        1 MOL      0.036991
     95 H39        -4.4320   -5.6400    1.4800 hc        1 MOL      0.101020
     96 H40        -2.6980   -5.7930    1.0940 hc        1 MOL      0.101020
     97 H41        -1.7180   -4.7000   -1.0820 ha        1 MOL      0.159517
     98 H42        -5.8970   -5.3360   -0.2700 ha        1 MOL      0.159517
     99 H43        -2.2530   -4.2810   -3.4970 ha        1 MOL      0.149814
    100 H44        -6.3620   -5.3090   -2.6650 ha        1 MOL      0.149814
    101 H45        -5.6350   -4.7540   -4.6600 ho        1 MOL      0.378810
    102 N10        -0.7570   -3.6590    2.1070 n         1 MOL     -0.501619
    103 C34         0.5790   -3.0950    2.0910 c3        1 MOL      0.166567
    104 C35         1.4700   -4.0580    1.1820 c         1 MOL      0.345348
    105 O15         1.6480   -5.2570    1.4030 o         1 MOL     -0.519356
    106 C36         1.1160   -3.0950    3.5140 c3        1 MOL      0.018874
    107 C37         0.3690   -2.0610    4.4100 c3        1 MOL     -0.130883
    108 C38         2.5830   -2.6990    3.5290 c3        1 MOL     -0.276438
    109 C39         0.2060   -0.6600    3.8390 c3        1 MOL     -0.181447
    110 H46        -0.9460   -4.3880    2.7770 hn        1 MOL      0.280385
    111 H47         0.5770   -2.0710    1.7220 h1        1 MOL      0.220333
    112 H48         1.0500   -4.1060    3.9190 hc        1 MOL      0.040395
    113 H49         0.7390   -2.0860    5.4270 hc        1 MOL      0.036144
    114 H50        -0.6630   -2.4400    4.4230 hc        1 MOL      0.036144
    115 H51         2.8090   -1.6810    3.2260 hc        1 MOL      0.076982
    116 H52         3.0350   -2.7850    4.5210 hc        1 MOL      0.076982
    117 H53         3.2270   -3.2820    2.8730 hc        1 MOL      0.076982
    118 H54         1.1990   -0.2130    3.7830 hc        1 MOL      0.085957
    119 H55        -0.1960   -0.6190    2.8220 hc        1 MOL      0.085957
    120 H56        -0.3910   -0.0560    4.5270 hc        1 MOL      0.085957
    121 N11         2.1520   -3.3900    0.2150 n         1 MOL     -0.207149
    122 C40         3.2120   -4.0400   -0.6170 c3        1 MOL      0.259173
    123 C41         4.6590   -3.7230   -0.2710 c         1 MOL      0.292318
    124 O16         4.8300   -2.7920    0.5650 o         1 MOL     -0.318307
    125 C42         2.8970   -3.5580   -2.0210 c3        1 MOL     -0.100770
    126 O17         3.4630   -2.3470   -2.3470 oh        1 MOL     -0.490069
    127 H57         2.0500   -2.3930    0.0720 hn        1 MOL     -0.005035
    128 H58         3.1480   -5.1300   -0.6620 h1        1 MOL      0.024448
    129 H59         1.8520   -3.7660   -2.2740 h1        1 MOL      0.062779
    130 H60         3.4210   -4.3690   -2.5360 h1        1 MOL      0.062779
    131 H61         2.7680   -1.7720   -2.6670 ho        1 MOL      0.393429
    132 N12         5.6890   -4.4640   -0.6700 n         1 MOL     -0.354204
    133 C43         7.0680   -4.1330   -0.2880 c3        1 MOL      0.089288
    134 C44         7.5560   -2.8180   -0.8360 c         1 MOL      0.454658
    135 O18         8.2910   -2.0900   -0.1550 o         1 MOL     -0.497784
    136 C45         7.9600   -5.2100   -0.9310 c3        1 MOL     -0.365421
    137 H62         5.5180   -5.3040   -1.2010 hn        1 MOL      0.287373
    138 H63         7.0840   -4.1850    0.7990 h1        1 MOL      0.109684
    139 H64         7.7250   -5.3700   -1.9900 hc        1 MOL      0.112526
    140 H65         9.0110   -4.9630   -0.7890 hc        1 MOL      0.112526
    141 H66         7.8020   -6.1590   -0.4290 hc        1 MOL      0.112526
    142 N13         7.0980   -2.4440   -2.0490 n         1 MOL     -0.398177
    143 C46         7.3150   -1.1590   -2.6520 c3        1 MOL      0.149189
    144 C47         6.6130   -0.0030   -1.9610 c         1 MOL      0.363818
    145 O19         7.1800    1.0980   -2.1220 o         1 MOL     -0.558626
    146 C48         6.9350   -1.2450   -4.1560 c3        1 MOL     -0.223815
    147 H67         6.4610   -3.1030   -2.4810 hn        1 MOL      0.250629
    148 H68         8.3630   -0.8890   -2.5960 h1        1 MOL      0.102902
    149 H69         7.3760   -0.4330   -4.7410 hc        1 MOL      0.066595
    150 H70         7.5070   -2.1080   -4.5000 hc        1 MOL      0.066595
    151 H71         5.8740   -1.3710   -4.3830 hc        1 MOL      0.066595
    152 N14         5.5140   -0.0530   -1.1840 n         1 MOL     -0.166602
    153 C49         4.9890    1.0210   -0.3980 c3        1 MOL      0.073725
    154 C50         5.4260    0.9510    1.1070 c         1 MOL      0.427248
    155 O20         5.6500    2.0010    1.7270 o         1 MOL     -0.540624
    156 C51         3.4600    1.0340   -0.4940 c3        1 MOL     -0.068585
    157 C52         2.6930    0.0060    0.2820 c3        1 MOL      0.350470
    158 C53         1.2070    0.0900    0.0350 c         1 MOL      0.596929
    159 O21         0.5780   -0.9440   -0.2750 o         1 MOL     -0.720221
    160 O22         0.5700    1.1930   -0.0110 o         1 MOL     -0.720221
    161 H72         4.9770   -0.9060   -1.2710 hn        1 MOL      0.140315
    162 H73         5.3770    1.9350   -0.8550 h1        1 MOL      0.063599
    163 H74         3.2460    0.8920   -1.5580 hc        1 MOL     -0.029002
    164 H75         3.1550    2.0470   -0.2290 hc        1 MOL     -0.029002
    165 H76         2.8650    0.0460    1.3610 hc        1 MOL     -0.086467
    166 H77         3.0510   -0.9870   -0.0000 hc        1 MOL     -0.086467
    167 N15         5.7860   -0.2460    1.5730 n         1 MOL      0.001105
    168 C54         6.4380   -0.4570    2.8280 c3        1 MOL     -0.242399
    169 H78         7.5180   -0.4020    2.6900 h1        1 MOL      0.096158
    170 H79         6.1230    0.3100    3.5360 h1        1 MOL      0.096158
    171 H80         6.1720   -1.4410    3.2160 h1        1 MOL      0.096158
    172 H81         5.6400   -1.0690    1.0120 hn        1 MOL     -0.010732
    173 Ca1        -1.7530   -0.0510   -0.6950 Ca        1 MOL      1.763242
    174 O23        -1.0030   -1.5100   -2.6970 oh        1 MOL     -0.915879
    175 H82        -0.1580   -1.5200   -2.2480 ho        1 MOL      0.450871
    176 H83        -0.8130   -1.8310   -3.5750 ho        1 MOL      0.450871
@<TRIPOS>BOND
     1    1    2 1   
     2    1    4 1   
     3    1    5 1   
     4    1    6 1   
     5    2    3 2   
     6    2    7 1   
     7    7    8 1   
     8    7   15 1   
     9    8    9 1   
    10    8   11 1   
    11    8   16 1   
    12    9   10 2   
    13    9   19 1   
    14   11   12 1   
    15   11   17 1   
    16   11   18 1   
    17   12   13 1   
    18   12   14 1   
    19   19   20 1   
    20   19   28 1   
    21   20   21 1   
    22   20   23 1   
    23   20   29 1   
    24   21   22 2   
    25   21   41 1   
    26   23   24 1   
    27   23   30 1   
    28   23   31 1   
    29   24   25 1   
    30   24   32 1   
    31   24   33 1   
    32   25   26 1   
    33   25   34 1   
    34   25   35 1   
    35   26   27 1   
    36   26   36 1   
    37   26   37 1   
    38   27   38 1   
    39   27   39 1   
    40   27   40 1   
    41   41   42 1   
    42   41   49 1   
    43   42   43 1   
    44   42   45 1   
    45   42   50 1   
    46   43   44 2   
    47   43   53 1   
    48   45   46 1   
    49   45   51 1   
    50   45   52 1   
    51   46   47 1   
    52   46   48 1   
    53   53   54 1   
    54   53   57 1   
    55   54   55 1   
    56   54   58 1   
    57   54   59 1   
    58   55   56 2   
    59   55   60 1   
    60   60   61 1   
    61   60   68 1   
    62   61   62 1   
    63   61   64 1   
    64   61   69 1   
    65   62   63 2   
    66   62   74 1   
    67   64   65 1   
    68   64   70 1   
    69   64   71 1   
    70   65   66 1   
    71   65   67 2   
    72   66   72 1   
    73   66   73 1   
    74   74   75 1   
    75   74   78 1   
    76   75   76 1   
    77   75   79 1   
    78   75   80 1   
    79   76   77 2   
    80   76   81 1   
    81   81   82 1   
    82   81   93 1   
    83   82   83 1   
    84   82   85 1   
    85   82   94 1   
    86   83   84 2   
    87   83  102 1   
    88   85   86 1   
    89   85   95 1   
    90   85   96 1   
    91   86   87 ar  
    92   86   88 ar  
    93   87   89 ar  
    94   87   97 1   
    95   88   90 ar  
    96   88   98 1   
    97   89   91 ar  
    98   89   99 1   
    99   90   91 ar  
   100   90  100 1   
   101   91   92 1   
   102   92  101 1   
   103  102  103 1   
   104  102  110 1   
   105  103  104 1   
   106  103  106 1   
   107  103  111 1   
   108  104  105 2   
   109  104  121 1   
   110  106  107 1   
   111  106  108 1   
   112  106  112 1   
   113  107  109 1   
   114  107  113 1   
   115  107  114 1   
   116  108  115 1   
   117  108  116 1   
   118  108  117 1   
   119  109  118 1   
   120  109  119 1   
   121  109  120 1   
   122  121  122 1   
   123  121  127 1   
   124  122  123 1   
   125  122  125 1   
   126  122  128 1   
   127  123  124 2   
   128  123  132 1   
   129  125  126 1   
   130  125  129 1   
   131  125  130 1   
   132  126  131 1   
   133  132  133 1   
   134  132  137 1   
   135  133  134 1   
   136  133  136 1   
   137  133  138 1   
   138  134  135 2   
   139  134  142 1   
   140  136  139 1   
   141  136  140 1   
   142  136  141 1   
   143  142  143 1   
   144  142  147 1   
   145  143  144 1   
   146  143  146 1   
   147  143  148 1   
   148  144  145 2   
   149  144  152 1   
   150  146  149 1   
   151  146  150 1   
   152  146  151 1   
   153  152  153 1   
   154  152  161 1   
   155  153  154 1   
   156  153  156 1   
   157  153  162 1   
   158  154  155 2   
   159  154  167 1   
   160  156  157 1   
   161  156  163 1   
   162  156  164 1   
   163  157  158 1   
   164  157  165 1   
   165  157  166 1   
   166  158  159 1   
   167  158  160 1   
   168  167  168 1   
   169  167  172 1   
   170  168  169 1   
   171  168  170 1   
   172  168  171 1   
   173  174  175 1   
   174  174  176 1   
@<TRIPOS>SUBSTRUCTURE
     1 MOL         1 TEMP              0 ****  ****    0 ROOT
