@<TRIPOS>MOLECULE
MOL
  189   185     1     0     0
SMALL
resp


@<TRIPOS>ATOM
      1 C1         -0.5860    1.5560    6.3200 c3        1 MOL     -0.251025
      2 C2         -0.8370    1.3960    4.8330 c         1 MOL      0.676438
      3 O1          0.0540    1.5950    4.0310 o         1 MOL     -0.579480
      4 H1         -1.0330    2.4880    6.6660 hc        1 MOL      0.069806
      5 H2         -1.0320    0.7190    6.8570 hc        1 MOL      0.069806
      6 H3          0.4890    1.5780    6.5080 hc        1 MOL      0.069806
      7 N1         -2.0910    1.1270    4.4640 n         1 MOL     -0.611933
      8 C3         -2.5790    1.1310    3.1010 c3        1 MOL      0.081974
      9 C4         -2.8830    2.5860    2.7040 c         1 MOL      0.589066
     10 O2         -4.0290    2.9340    2.7260 o         1 MOL     -0.515755
     11 C5         -3.9030    0.2360    2.8360 c3        1 MOL      0.081518
     12 C6         -4.4460    0.1390    1.4280 c         1 MOL      0.545248
     13 O3         -3.8200    0.6430    0.4730 o         1 MOL     -0.600650
     14 O4         -5.5740   -0.3540    1.2360 o         1 MOL     -0.600650
     15 H4         -2.7390    0.9210    5.2110 hn        1 MOL      0.329570
     16 H5         -1.7640    0.7150    2.5060 h1        1 MOL     -0.043706
     17 H6         -4.7010    0.6200    3.4670 hc        1 MOL     -0.001212
     18 H7         -3.7580   -0.7490    3.2730 hc        1 MOL     -0.001212
     19 N2         -1.8770    3.4290    2.4910 n         1 MOL     -0.363326
     20 C7         -1.8540    4.8890    2.2430 c3        1 MOL     -0.189966
     21 C8         -2.5100    5.3160    0.9250 c         1 MOL      0.552054
     22 O5         -2.5980    6.4880    0.5800 o         1 MOL     -0.540545
     23 C9         -0.3870    5.4330    2.4380 c3        1 MOL     -0.162604
     24 C10         0.7100    4.8130    1.5840 c3        1 MOL      0.006899
     25 C11         0.8930    5.3260    0.1260 c3        1 MOL     -0.128057
     26 C12         1.6710    4.3990   -0.7830 c3        1 MOL      0.103671
     27 N3          1.4290    4.6690   -2.2650 n4        1 MOL     -0.296467
     28 H8         -1.0000    2.9500    2.3840 hn        1 MOL      0.362766
     29 H9         -2.5220    5.3680    2.9700 h1        1 MOL      0.156201
     30 H10        -0.0880    5.3040    3.4750 hc        1 MOL      0.078155
     31 H11        -0.3310    6.4920    2.2120 hc        1 MOL      0.078155
     32 H12         0.5180    3.7370    1.5750 hc        1 MOL      0.056033
     33 H13         1.6080    4.9690    2.1680 hc        1 MOL      0.056033
     34 H14         1.3110    6.3350    0.0850 hc        1 MOL      0.056235
     35 H15        -0.1020    5.3860   -0.3080 hc        1 MOL      0.056235
     36 H16         1.4230    3.3460   -0.6050 hx        1 MOL      0.030273
     37 H17         2.7300    4.5800   -0.6220 hx        1 MOL      0.030273
     38 H18         1.3500    5.6280   -2.5740 hn        1 MOL      0.275843
     39 H19         2.2630    4.3180   -2.7290 hn        1 MOL      0.275843
     40 H20         0.6390    4.0950   -2.5260 hn        1 MOL      0.275843
     41 N4         -3.0860    4.3330    0.1750 n         1 MOL     -0.231961
     42 C13        -3.9020    4.7110   -0.9890 c3        1 MOL      0.082237
     43 C14        -5.1850    3.8730   -1.1300 c         1 MOL      0.351472
     44 O6         -6.0080    4.1190   -2.0530 o         1 MOL     -0.497581
     45 C15        -3.1040    4.5960   -2.3180 c3        1 MOL     -0.225173
     46 C16        -2.1380    3.3760   -2.2840 c         1 MOL      0.907817
     47 O7         -2.6310    2.2630   -2.1550 o         1 MOL     -0.751243
     48 O8         -0.9320    3.5750   -2.5550 o         1 MOL     -0.751243
     49 H21        -3.2160    3.4090    0.5720 hn        1 MOL      0.003324
     50 H22        -4.2960    5.7210   -0.9250 h1        1 MOL      0.086457
     51 H23        -2.4970    5.5040   -2.3870 hc        1 MOL      0.047754
     52 H24        -3.7600    4.5250   -3.1870 hc        1 MOL      0.047754
     53 N5         -5.4980    2.8960   -0.2570 n         1 MOL      0.043109
     54 C17        -6.7890    2.3270   -0.1210 c3        1 MOL     -0.283275
     55 C18        -7.2440    1.3350   -1.1900 c         1 MOL      0.518500
     56 O9         -8.1400    1.6540   -1.9530 o         1 MOL     -0.539271
     57 H25        -4.7460    2.6540    0.3690 hn        1 MOL      0.079609
     58 H26        -7.4270    3.2040   -0.1200 h1        1 MOL      0.107097
     59 H27        -6.8200    1.8720    0.8730 h1        1 MOL      0.107097
     60 N6         -6.5530    0.2140   -1.3500 n         1 MOL     -0.091702
     61 C19        -6.9150   -0.9060   -2.1660 c3        1 MOL     -0.031537
     62 C20        -6.9170   -2.3000   -1.4370 c         1 MOL      0.414002
     63 O10        -7.1350   -3.3010   -2.1000 o         1 MOL     -0.497859
     64 C21        -5.9250   -0.9480   -3.3220 c3        1 MOL     -0.061097
     65 C22        -4.4740   -0.9220   -2.9330 c         1 MOL      0.611876
     66 O11        -4.0210   -1.6860   -2.0110 o         1 MOL     -0.650338
     67 O12        -3.7150   -0.0180   -3.3940 o         1 MOL     -0.650338
     68 H28        -5.7450    0.1190   -0.7620 hn        1 MOL      0.061134
     69 H29        -7.9520   -0.7270   -2.4640 h1        1 MOL      0.086961
     70 H30        -6.0980   -0.1080   -3.9940 hc        1 MOL      0.034755
     71 H31        -6.0380   -1.8810   -3.8850 hc        1 MOL      0.034755
     72 N7         -6.6780   -2.4580   -0.1180 n         1 MOL     -0.297166
     73 C23        -6.7660   -3.7320    0.6450 c3        1 MOL     -0.116496
     74 C24        -5.4000   -4.4650    0.6540 c         1 MOL      0.509677
     75 O13        -5.3410   -5.6420    1.0710 o         1 MOL     -0.578111
     76 H32        -6.3160   -1.6810    0.4110 hn        1 MOL      0.194309
     77 H33        -7.5570   -4.3120    0.1650 h1        1 MOL      0.106945
     78 H34        -7.1060   -3.4840    1.6570 h1        1 MOL      0.106945
     79 N8         -4.3330   -3.8510    0.0680 n         1 MOL     -0.332786
     80 C25        -3.0670   -4.5750   -0.2500 c3        1 MOL     -0.046671
     81 C26        -1.8500   -3.7040    0.0640 c         1 MOL      0.661338
     82 O14        -1.9620   -2.5010    0.0360 o         1 MOL     -0.721390
     83 C27        -3.0310   -5.0370   -1.6930 c3        1 MOL      0.485374
     84 C28        -3.5320   -6.3960   -2.0730 c3        1 MOL     -0.386913
     85 O15        -3.7540   -4.1370   -2.5220 oh        1 MOL     -0.641713
     86 H35        -4.5780   -2.9770   -0.3740 hn        1 MOL      0.274836
     87 H36        -2.9260   -5.4510    0.3860 h1        1 MOL      0.080512
     88 H37        -1.9900   -5.0320   -2.0220 h1        1 MOL     -0.072699
     89 H38        -3.7050   -3.2510   -2.1420 ho        1 MOL      0.411487
     90 H39        -2.9600   -7.0970   -1.4570 hc        1 MOL      0.092888
     91 H40        -4.5900   -6.4670   -1.8090 hc        1 MOL      0.092888
     92 H41        -3.3600   -6.6030   -3.1330 hc        1 MOL      0.092888
     93 N9         -0.7230   -4.2950    0.4840 n         1 MOL     -0.660954
     94 C29         0.4310   -3.5310    0.9720 c3        1 MOL      0.393917
     95 C30         1.6050   -3.8170    0.0480 c         1 MOL      0.318251
     96 O16         2.0410   -4.9830   -0.0650 o         1 MOL     -0.530290
     97 C31         0.7760   -4.0060    2.4280 c3        1 MOL      0.089925
     98 C32        -0.4390   -3.9650    3.3650 c3        1 MOL     -0.205813
     99 C33         2.0380   -3.3460    3.1450 c3        1 MOL     -0.398312
    100 C34        -1.0500   -2.5950    3.6490 c3        1 MOL     -0.031922
    101 H42        -0.8370   -5.2650    0.7360 hn        1 MOL      0.319645
    102 H43         0.2800   -2.4500    1.0240 h1        1 MOL      0.017099
    103 H44         0.8960   -5.0810    2.3880 hc        1 MOL     -0.000752
    104 H45        -0.0640   -4.4460    4.2710 hc        1 MOL      0.063513
    105 H46        -1.2020   -4.5660    2.8810 hc        1 MOL      0.063513
    106 H47         2.3220   -3.7400    4.1240 hc        1 MOL      0.097683
    107 H48         2.8880   -3.3940    2.4620 hc        1 MOL      0.097683
    108 H49         1.8400   -2.2940    3.3750 hc        1 MOL      0.097683
    109 H50        -1.6910   -2.1960    2.8580 hc        1 MOL      0.024825
    110 H51        -1.6350   -2.6650    4.5620 hc        1 MOL      0.024825
    111 H52        -0.3110   -1.8380    3.9140 hc        1 MOL      0.024825
    112 N10         2.1390   -2.7380   -0.5600 n         1 MOL     -0.065016
    113 C35         3.3210   -2.5490   -1.3720 c3        1 MOL     -0.097561
    114 C36         4.6110   -2.4400   -0.5260 c         1 MOL      0.279641
    115 O17         4.5980   -2.0810    0.6680 o         1 MOL     -0.195428
    116 C37         3.2080   -1.3050   -2.3460 c3        1 MOL      0.201674
    117 C38         2.1480   -1.6320   -3.4230 c3        1 MOL     -0.464482
    118 O18         2.9250   -0.0680   -1.6810 oh        1 MOL     -0.520898
    119 H53         1.7700   -1.8400   -0.2940 hn        1 MOL      0.104194
    120 H54         3.3910   -3.4150   -2.0410 h1        1 MOL      0.085489
    121 H55         4.1660   -1.1260   -2.8430 h1        1 MOL      0.027233
    122 H56         1.9650   -0.1120   -1.7410 ho        1 MOL      0.325450
    123 H57         1.1940   -1.9200   -2.9760 hc        1 MOL      0.142015
    124 H58         2.0030   -0.7160   -4.0050 hc        1 MOL      0.142015
    125 H59         2.5270   -2.4250   -4.0680 hc        1 MOL      0.142015
    126 N11         5.7640   -2.7320   -1.1280 n         1 MOL     -0.240752
    127 C39         7.0910   -2.6600   -0.3830 c3        1 MOL     -0.254698
    128 C40         7.3640   -1.3170    0.3650 c         1 MOL      0.344685
    129 O19         7.6860   -1.3400    1.4980 o         1 MOL     -0.443655
    130 C41         8.3030   -2.8220   -1.3460 c3        1 MOL      0.516356
    131 C42         8.3430   -4.1740   -2.0640 c3        1 MOL     -0.525774
    132 O20         8.1820   -1.9100   -2.3790 oh        1 MOL     -0.828833
    133 H60         5.6750   -2.9800   -2.1070 hn        1 MOL      0.241012
    134 H61         7.0920   -3.5100    0.3120 h1        1 MOL      0.165227
    135 H62         9.2190   -2.7970   -0.7540 h1        1 MOL      0.035137
    136 H63         8.4260   -2.2740   -3.2400 ho        1 MOL      0.471697
    137 H64         9.2960   -4.2050   -2.5940 hc        1 MOL      0.137401
    138 H65         8.2420   -4.8850   -1.2460 hc        1 MOL      0.137401
    139 H66         7.5000   -4.3180   -2.7340 hc        1 MOL      0.137401
    140 N12         6.9620   -0.2030   -0.3030 n         1 MOL     -0.148467
    141 C43         6.9850    1.1660    0.2590 c3        1 MOL     -0.038843
    142 C44         5.8820    1.4660    1.3430 c         1 MOL      0.295630
    143 O21         5.9710    2.3680    2.1900 o         1 MOL     -0.509988
    144 C45         6.8520    2.0810   -0.9660 c3        1 MOL     -0.122004
    145 C46         8.0290    1.8920   -1.9850 c3        1 MOL      0.240284
    146 C47         8.3150    3.1670   -2.9010 c3        1 MOL     -0.300883
    147 C48         9.0550    2.8020   -4.2080 c3        1 MOL      0.132309
    148 N13         9.0840    3.9110   -5.2510 n4        1 MOL     -0.325451
    149 H67         6.8200   -0.2210   -1.3030 hn        1 MOL      0.279522
    150 H68         7.8920    1.4050    0.8160 h1        1 MOL      0.116006
    151 H69         6.9610    3.1270   -0.6720 hc        1 MOL      0.029487
    152 H70         5.9590    1.8850   -1.5610 hc        1 MOL      0.029487
    153 H71         7.6490    1.0410   -2.5430 hc        1 MOL     -0.031331
    154 H72         8.8990    1.5170   -1.4500 hc        1 MOL     -0.031331
    155 H73         9.0000    3.8190   -2.3610 hc        1 MOL      0.105129
    156 H74         7.3080    3.5630   -3.0310 hc        1 MOL      0.105129
    157 H75         8.5280    1.9470   -4.6510 hx        1 MOL      0.064235
    158 H76        10.0730    2.4600   -4.0290 hx        1 MOL      0.064235
    159 H77         9.7010    3.6690   -6.0110 hn        1 MOL      0.302689
    160 H78         8.1350    4.0580   -5.5340 hn        1 MOL      0.302689
    161 H79         9.3760    4.7780   -4.8230 hn        1 MOL      0.302689
    162 N14         4.8120    0.7200    1.3590 n         1 MOL     -0.062447
    163 C49         3.8290    0.7210    2.5270 c3        1 MOL      0.022930
    164 C50         4.2430   -0.1070    3.7100 c         1 MOL      0.478682
    165 O22         4.1460    0.2820    4.8310 o         1 MOL     -0.554272
    166 C51         2.4700    0.1950    2.0890 c3        1 MOL     -0.047399
    167 C52         1.7530    1.1810    1.2080 c3        1 MOL      0.094984
    168 C53         0.5000    0.7460    0.5180 c         1 MOL      0.803736
    169 O23         0.4360   -0.3570   -0.0680 o         1 MOL     -0.734650
    170 O24        -0.4630    1.5180    0.4060 o         1 MOL     -0.734650
    171 H80         4.6750    0.0050    0.6510 hn        1 MOL      0.074134
    172 H81         3.7070    1.7390    2.9000 h1        1 MOL      0.071453
    173 H82         1.8740    0.0080    2.9850 hc        1 MOL      0.043940
    174 H83         2.6810   -0.7010    1.4910 hc        1 MOL      0.043940
    175 H84         2.4220    1.6480    0.4850 hc        1 MOL     -0.078929
    176 H85         1.5620    1.9970    1.9090 hc        1 MOL     -0.078929
    177 N15         4.8230   -1.2660    3.4570 n         1 MOL     -0.047125
    178 C54         5.5440   -2.1670    4.3690 c3        1 MOL     -0.396236
    179 H86         6.2210   -2.7980    3.7950 h1        1 MOL      0.137340
    180 H87         6.1180   -1.5770    5.0840 h1        1 MOL      0.137340
    181 H88         4.8300   -2.7920    4.9030 h1        1 MOL      0.137340
    182 H89         4.6610   -1.5390    2.5030 hn        1 MOL      0.059409
    183 Ca1        -1.9520   -0.0260   -1.1440 Ca        1 MOL      1.762780
    184 O25        -0.2220    1.1460   -2.9100 oh        1 MOL     -0.840324
    185 H90         0.0150    0.9940   -3.8230 ho        1 MOL      0.381343
    186 H91        -0.6160    2.0140   -2.8990 ho        1 MOL      0.381343
    187 O26        -1.3810   -1.6360   -3.1100 oh        1 MOL     -0.840324
    188 H92        -2.3090   -1.6580   -3.3550 ho        1 MOL      0.381343
    189 H93        -0.9090   -1.6410   -3.9450 ho        1 MOL      0.381343
@<TRIPOS>BOND
     1    1    2 1   
     2    1    4 1   
     3    1    5 1   
     4    1    6 1   
     5    2    3 2   
     6    2    7 1   
     7    7    8 1   
     8    7   15 1   
     9    8    9 1   
    10    8   11 1   
    11    8   16 1   
    12    9   10 2   
    13    9   19 1   
    14   11   12 1   
    15   11   17 1   
    16   11   18 1   
    17   12   13 1   
    18   12   14 1   
    19   19   20 1   
    20   19   28 1   
    21   20   21 1   
    22   20   23 1   
    23   20   29 1   
    24   21   22 2   
    25   21   41 1   
    26   23   24 1   
    27   23   30 1   
    28   23   31 1   
    29   24   25 1   
    30   24   32 1   
    31   24   33 1   
    32   25   26 1   
    33   25   34 1   
    34   25   35 1   
    35   26   27 1   
    36   26   36 1   
    37   26   37 1   
    38   27   38 1   
    39   27   39 1   
    40   27   40 1   
    41   41   42 1   
    42   41   49 1   
    43   42   43 1   
    44   42   45 1   
    45   42   50 1   
    46   43   44 2   
    47   43   53 1   
    48   45   46 1   
    49   45   51 1   
    50   45   52 1   
    51   46   47 1   
    52   46   48 1   
    53   53   54 1   
    54   53   57 1   
    55   54   55 1   
    56   54   58 1   
    57   54   59 1   
    58   55   56 2   
    59   55   60 1   
    60   60   61 1   
    61   60   68 1   
    62   61   62 1   
    63   61   64 1   
    64   61   69 1   
    65   62   63 2   
    66   62   72 1   
    67   64   65 1   
    68   64   70 1   
    69   64   71 1   
    70   65   66 1   
    71   65   67 1   
    72   72   73 1   
    73   72   76 1   
    74   73   74 1   
    75   73   77 1   
    76   73   78 1   
    77   74   75 2   
    78   74   79 1   
    79   79   80 1   
    80   79   86 1   
    81   80   81 1   
    82   80   83 1   
    83   80   87 1   
    84   81   82 2   
    85   81   93 1   
    86   83   84 1   
    87   83   85 1   
    88   83   88 1   
    89   84   90 1   
    90   84   91 1   
    91   84   92 1   
    92   85   89 1   
    93   93   94 1   
    94   93  101 1   
    95   94   95 1   
    96   94   97 1   
    97   94  102 1   
    98   95   96 2   
    99   95  112 1   
   100   97   98 1   
   101   97   99 1   
   102   97  103 1   
   103   98  100 1   
   104   98  104 1   
   105   98  105 1   
   106   99  106 1   
   107   99  107 1   
   108   99  108 1   
   109  100  109 1   
   110  100  110 1   
   111  100  111 1   
   112  112  113 1   
   113  112  119 1   
   114  113  114 1   
   115  113  116 1   
   116  113  120 1   
   117  114  115 2   
   118  114  126 1   
   119  116  117 1   
   120  116  118 1   
   121  116  121 1   
   122  117  123 1   
   123  117  124 1   
   124  117  125 1   
   125  118  122 1   
   126  126  127 1   
   127  126  133 1   
   128  127  128 1   
   129  127  130 1   
   130  127  134 1   
   131  128  129 2   
   132  128  140 1   
   133  130  131 1   
   134  130  132 1   
   135  130  135 1   
   136  131  137 1   
   137  131  138 1   
   138  131  139 1   
   139  132  136 1   
   140  140  141 1   
   141  140  149 1   
   142  141  142 1   
   143  141  144 1   
   144  141  150 1   
   145  142  143 2   
   146  142  162 1   
   147  144  145 1   
   148  144  151 1   
   149  144  152 1   
   150  145  146 1   
   151  145  153 1   
   152  145  154 1   
   153  146  147 1   
   154  146  155 1   
   155  146  156 1   
   156  147  148 1   
   157  147  157 1   
   158  147  158 1   
   159  148  159 1   
   160  148  160 1   
   161  148  161 1   
   162  162  163 1   
   163  162  171 1   
   164  163  164 1   
   165  163  166 1   
   166  163  172 1   
   167  164  165 2   
   168  164  177 1   
   169  166  167 1   
   170  166  173 1   
   171  166  174 1   
   172  167  168 1   
   173  167  175 1   
   174  167  176 1   
   175  168  169 1   
   176  168  170 1   
   177  177  178 1   
   178  177  182 1   
   179  178  179 1   
   180  178  180 1   
   181  178  181 1   
   182  184  185 1   
   183  184  186 1   
   184  187  188 1   
   185  187  189 1   
@<TRIPOS>SUBSTRUCTURE
     1 MOL         1 TEMP              0 ****  ****    0 ROOT
