@<TRIPOS>MOLECULE
MOL
  189   185     1     0     0
SMALL
resp


@<TRIPOS>ATOM
      1 C1          0.2760   -4.7070    5.4160 c3        1 MOL     -0.366985
      2 C2          0.9150   -4.0590    4.2030 c         1 MOL      0.728747
      3 O1          0.9740   -2.8530    4.2050 o         1 MOL     -0.590707
      4 H1          0.7490   -4.3270    6.3220 hc        1 MOL      0.089803
      5 H2         -0.7880   -4.4720    5.4360 hc        1 MOL      0.089803
      6 H3          0.4090   -5.7880    5.3630 hc        1 MOL      0.089803
      7 N1          1.4150   -4.7740    3.1960 n         1 MOL     -0.499098
      8 C3          2.1430   -4.2300    2.0580 c3        1 MOL      0.241316
      9 C4          1.8810   -5.1680    0.8220 c         1 MOL      0.407866
     10 O2          1.9470   -6.4320    0.8150 o         1 MOL     -0.571122
     11 C5          3.6840   -4.1260    2.3070 c3        1 MOL     -0.208455
     12 C6          4.2840   -3.5660    0.9870 c         1 MOL      0.702899
     13 O3          5.2790   -4.2420    0.5520 o         1 MOL     -0.664798
     14 O4          3.8270   -2.5780    0.4000 o         1 MOL     -0.664798
     15 H4          1.3340   -5.7750    3.2940 hn        1 MOL      0.281967
     16 H5          1.8430   -3.2370    1.7210 h1        1 MOL     -0.224168
     17 H6          4.2020   -5.0030    2.6660 hc        1 MOL      0.041755
     18 H7          3.8520   -3.4660    3.1630 hc        1 MOL      0.041755
     19 N2          1.4060   -4.5800   -0.3050 n         1 MOL      0.015611
     20 C7          1.4280   -5.3000   -1.6040 c3        1 MOL     -0.081445
     21 C8          2.5980   -5.0810   -2.4620 c         1 MOL      0.598086
     22 O5          2.9870   -5.8810   -3.3250 o         1 MOL     -0.601283
     23 C9          0.1050   -5.0280   -2.3550 c3        1 MOL      0.317610
     24 C10        -1.1050   -5.5560   -1.4820 c3        1 MOL     -0.322932
     25 C11        -0.1140   -5.7340   -3.7010 c3        1 MOL     -0.462917
     26 C12        -2.4830   -4.7590   -1.6370 c3        1 MOL      0.018739
     27 H8          1.0410   -3.6400   -0.3130 hn        1 MOL      0.052194
     28 H9          1.4110   -6.3700   -1.4250 h1        1 MOL      0.038762
     29 H10        -0.0860   -3.9810   -2.5920 hc        1 MOL      0.003963
     30 H11        -0.8940   -5.4080   -0.4230 hc        1 MOL      0.075706
     31 H12        -1.3410   -6.5900   -1.7070 hc        1 MOL      0.075706
     32 H13        -1.1410   -5.6280   -4.0510 hc        1 MOL      0.101059
     33 H14         0.6380   -5.2910   -4.3470 hc        1 MOL      0.101059
     34 H15         0.2520   -6.7610   -3.5950 hc        1 MOL      0.101059
     35 H16        -3.2300   -5.2220   -0.9960 hc        1 MOL      0.027474
     36 H17        -2.4280   -3.6960   -1.3950 hc        1 MOL      0.027474
     37 H18        -2.7670   -4.8400   -2.6820 hc        1 MOL      0.027474
     38 N3          3.1310   -3.8480   -2.3770 n         1 MOL     -0.344153
     39 C13         3.9040   -3.1620   -3.5030 c3        1 MOL      0.007063
     40 C14         5.2820   -2.5980   -3.1220 c         1 MOL      0.355845
     41 O6          6.0620   -2.2510   -4.0240 o         1 MOL     -0.554132
     42 C15         3.0090   -2.0930   -4.2080 c3        1 MOL     -0.154620
     43 C16         2.4330   -1.1140   -3.2450 c         1 MOL      0.760710
     44 O7          2.8610   -0.9470   -2.0670 o         1 MOL     -0.714590
     45 O8          1.5990   -0.3000   -3.6370 o         1 MOL     -0.714590
     46 H19         2.8800   -3.3000   -1.5770 hn        1 MOL      0.193988
     47 H20         4.1960   -4.0040   -4.1210 h1        1 MOL      0.097366
     48 H21         2.1790   -2.6610   -4.6380 hc        1 MOL      0.039683
     49 H22         3.5040   -1.6360   -5.0620 hc        1 MOL      0.039683
     50 N4          5.6030   -2.5580   -1.7970 n         1 MOL     -0.010482
     51 C17         6.9070   -2.1820   -1.2280 c3        1 MOL     -0.141512
     52 C18         7.2770   -0.7260   -1.4220 c         1 MOL      0.489162
     53 O9          8.4570   -0.5640   -1.5930 o         1 MOL     -0.610405
     54 H23         4.9510   -2.9010   -1.1070 hn        1 MOL      0.024070
     55 H24         7.6810   -2.8210   -1.6380 h1        1 MOL      0.086625
     56 H25         6.9220   -2.2890   -0.1460 h1        1 MOL      0.086625
     57 N5          6.3710    0.2460   -1.3790 n         1 MOL     -0.138822
     58 C19         6.6410    1.7030   -1.7820 c3        1 MOL     -0.159183
     59 C20         7.0850    2.6690   -0.6670 c         1 MOL      0.464538
     60 O10         7.4390    3.8070   -0.9920 o         1 MOL     -0.510440
     61 C21         5.4010    2.3130   -2.4760 c3        1 MOL     -0.126641
     62 C22         4.1240    2.2440   -1.7000 c         1 MOL      0.737672
     63 O11         4.1410    1.5550   -0.6650 o         1 MOL     -0.688963
     64 O12         3.0000    2.6760   -2.1980 o         1 MOL     -0.688963
     65 H26         5.4160   -0.0540   -1.2750 hn        1 MOL      0.170729
     66 H27         7.4250    1.8160   -2.5300 h1        1 MOL      0.141985
     67 H28         5.2380    1.8750   -3.4690 hc        1 MOL      0.063383
     68 H29         5.5700    3.3540   -2.7250 hc        1 MOL      0.063383
     69 N6          6.9730    2.2300    0.6420 n         1 MOL     -0.333930
     70 C23         7.1150    3.1470    1.7890 c3        1 MOL     -0.118186
     71 C24         5.9380    4.0120    2.0740 c         1 MOL      0.429119
     72 O13         6.0160    5.0610    2.7090 o         1 MOL     -0.583239
     73 H30         6.7780    1.2340    0.7180 hn        1 MOL      0.240029
     74 H31         8.0330    3.7220    1.6680 h1        1 MOL      0.092441
     75 H32         7.2240    2.5560    2.7030 h1        1 MOL      0.092441
     76 N7          4.7760    3.6560    1.5280 n         1 MOL     -0.160724
     77 C25         3.4820    4.2950    1.5210 c3        1 MOL      0.025412
     78 C26         2.3310    3.3180    1.6730 c         1 MOL      0.389525
     79 O14         2.5090    2.1340    1.8490 o         1 MOL     -0.626919
     80 C27         3.5400    5.0640    0.1890 c3        1 MOL     -0.058868
     81 C28         4.5930    6.2250    0.2840 c3        1 MOL     -0.261057
     82 C29         4.2720    7.4260   -0.6420 c         1 MOL      0.646919
     83 N8          5.3320    8.2030   -0.9150 n         1 MOL     -0.796180
     84 O15         3.1690    7.8380   -1.0520 o         1 MOL     -0.550776
     85 H33         4.8860    2.7640    1.0610 hn        1 MOL      0.153198
     86 H34         3.4280    4.9720    2.3660 h1        1 MOL      0.062192
     87 H35         2.5410    5.4360   -0.0530 hc        1 MOL      0.042403
     88 H36         3.8540    4.4220   -0.6340 hc        1 MOL      0.042403
     89 H37         5.5740    5.8100    0.0320 hc        1 MOL      0.103345
     90 H38         4.6870    6.5950    1.3010 hc        1 MOL      0.103345
     91 H39         6.2380    7.8990   -0.5930 hn        1 MOL      0.347650
     92 H40         5.1730    9.0800   -1.3980 hn        1 MOL      0.347650
     93 N9          1.1760    3.8480    1.8160 n         1 MOL     -0.156268
     94 C30        -0.0780    3.0060    1.9620 c3        1 MOL      0.135332
     95 C31        -1.0720    3.2660    0.8410 c         1 MOL      0.317544
     96 O16        -1.2000    4.3720    0.3560 o         1 MOL     -0.547288
     97 C32        -0.7480    3.1540    3.3710 c3        1 MOL      0.111555
     98 C33        -1.4380    1.7720    3.6700 c3        1 MOL     -0.332014
     99 C34         0.2740    3.4940    4.4600 c3        1 MOL     -0.332014
    100 H41         1.0450    4.8460    1.8810 hn        1 MOL      0.216583
    101 H42         0.2080    1.9680    1.8130 h1        1 MOL      0.038270
    102 H43        -1.4350    4.0020    3.3080 hc        1 MOL      0.008667
    103 H44        -2.2890    1.6410    3.0020 hc        1 MOL      0.076315
    104 H45        -0.8320    0.8760    3.5970 hc        1 MOL      0.076315
    105 H46        -1.8550    1.8550    4.6710 hc        1 MOL      0.076315
    106 H47         0.9340    4.3260    4.2150 hc        1 MOL      0.076315
    107 H48        -0.1040    3.6690    5.4790 hc        1 MOL      0.076315
    108 H49         0.9040    2.6210    4.6400 hc        1 MOL      0.076315
    109 N10        -1.8150    2.2010    0.5590 n         1 MOL     -0.185557
    110 C35        -2.9220    2.1610   -0.4280 c3        1 MOL      0.265844
    111 C36        -4.2270    1.6740    0.2290 c         1 MOL      0.081068
    112 O17        -4.1820    0.8920    1.1560 o         1 MOL     -0.263474
    113 C37        -2.5270    1.2740   -1.6360 c3        1 MOL     -0.311779
    114 C38        -3.5350    1.3010   -2.7420 c         1 MOL      0.622831
    115 N11        -3.7640    2.3610   -3.5110 n         1 MOL     -0.700805
    116 O18        -4.2290    0.2820   -2.9270 o         1 MOL     -0.519377
    117 H50        -1.4770    1.3030    0.8700 hn        1 MOL      0.226151
    118 H51        -3.0760    3.1930   -0.7420 h1        1 MOL      0.014750
    119 H52        -2.4800    0.2520   -1.2670 hc        1 MOL      0.108771
    120 H53        -1.5540    1.6330   -1.9650 hc        1 MOL      0.108771
    121 H54        -3.2150    3.1980   -3.3600 hn        1 MOL      0.320901
    122 H55        -4.6120    2.3560   -4.0460 hn        1 MOL      0.320901
    123 N12        -5.4170    2.0790   -0.2750 n         1 MOL     -0.126003
    124 C39        -6.7400    1.5430   -0.0010 c3        1 MOL      0.027346
    125 C40        -6.7430    0.1020    0.5760 c         1 MOL      0.387354
    126 O19        -6.9850   -0.1520    1.8100 o         1 MOL     -0.548178
    127 C41        -7.6420    1.6480   -1.2830 c3        1 MOL     -0.156460
    128 C42        -8.1280    2.9870   -1.5960 ca        1 MOL      0.131852
    129 C43        -9.2310    3.4830   -0.9760 ca        1 MOL     -0.133889
    130 C44        -7.4330    3.6840   -2.5920 ca        1 MOL     -0.133889
    131 C45        -9.5990    4.7960   -1.2740 ca        1 MOL     -0.289018
    132 C46        -7.8070    5.0090   -2.8850 ca        1 MOL     -0.289018
    133 C47        -8.9020    5.5620   -2.2260 ca        1 MOL      0.336999
    134 O20        -9.4030    6.8150   -2.5800 oh        1 MOL     -0.524195
    135 H56        -5.3990    2.8160   -0.9590 hn        1 MOL      0.124421
    136 H57        -7.3140    2.1770    0.6810 h1        1 MOL      0.046541
    137 H58        -8.5490    1.0770   -1.0990 hc        1 MOL      0.067391
    138 H59        -7.1210    1.1440   -2.0870 hc        1 MOL      0.067391
    139 H60        -9.7450    2.8420   -0.2660 ha        1 MOL      0.142441
    140 H61        -6.6920    3.1850   -3.2000 ha        1 MOL      0.142441
    141 H62       -10.4320    5.2580   -0.7610 ha        1 MOL      0.144721
    142 H63        -7.2760    5.6050   -3.6110 ha        1 MOL      0.144721
    143 H64        -8.9310    7.2390   -3.2920 ho        1 MOL      0.365955
    144 N13        -6.1490   -0.8610   -0.1670 n         1 MOL     -0.184230
    145 C48        -6.0990   -2.3120    0.1670 c3        1 MOL     -0.035927
    146 C49        -5.3850   -2.7520    1.3880 c         1 MOL      0.322949
    147 O21        -5.7700   -3.7460    2.0580 o         1 MOL     -0.534408
    148 C50        -5.5820   -3.1660   -0.9950 c3        1 MOL     -0.158425
    149 C51        -6.4000   -2.9700   -2.2150 c3        1 MOL      0.009531
    150 C52        -7.9100   -3.1090   -2.1120 c         1 MOL      0.658763
    151 O22        -8.5840   -2.1630   -2.5520 o         1 MOL     -0.731068
    152 O23        -8.3520   -4.0720   -1.4100 o         1 MOL     -0.731068
    153 H65        -5.8870   -0.6870   -1.1180 hn        1 MOL      0.246207
    154 H66        -7.1210   -2.6310    0.3240 h1        1 MOL      0.163820
    155 H67        -5.3810   -4.2060   -0.7410 hc        1 MOL      0.053549
    156 H68        -4.6380   -2.6910   -1.2700 hc        1 MOL      0.053549
    157 H69        -6.1100   -3.6810   -2.9920 hc        1 MOL     -0.052077
    158 H70        -6.1350   -1.9850   -2.5880 hc        1 MOL     -0.052077
    159 N14        -4.3240   -2.0460    1.7470 n         1 MOL     -0.073726
    160 C53        -3.3910   -2.2950    2.9010 c3        1 MOL     -0.136983
    161 C54        -4.0190   -1.5070    4.0290 c         1 MOL      0.464449
    162 O24        -3.9630   -2.0470    5.1930 o         1 MOL     -0.587667
    163 C55        -1.9900   -1.7110    2.5620 c3        1 MOL      0.093733
    164 C56        -1.3360   -2.2820    1.2960 c3        1 MOL      0.111613
    165 C57        -0.2330   -1.4100    0.7900 c         1 MOL      0.804534
    166 O25         0.5830   -1.9080    0.0200 o         1 MOL     -0.740594
    167 O26        -0.1310   -0.1970    1.0880 o         1 MOL     -0.740594
    168 H71        -4.1450   -1.2280    1.1870 hn        1 MOL      0.139058
    169 H72        -3.2750   -3.3610    3.0480 h1        1 MOL      0.099205
    170 H73        -1.1890   -1.9180    3.2570 hc        1 MOL     -0.001569
    171 H74        -2.1490   -0.6380    2.4830 hc        1 MOL     -0.001569
    172 H75        -2.0930   -2.4390    0.5330 hc        1 MOL     -0.074718
    173 H76        -0.9910   -3.3080    1.4700 hc        1 MOL     -0.074718
    174 N15        -4.4120   -0.2530    3.7910 n         1 MOL     -0.020403
    175 C58        -4.9810    0.5490    4.7900 c3        1 MOL     -0.425465
    176 H77        -4.2060    0.8560    5.4930 h1        1 MOL      0.122029
    177 H78        -5.4290    1.4320    4.3360 h1        1 MOL      0.122029
    178 H79        -5.7470   -0.0180    5.3190 h1        1 MOL      0.122029
    179 H80        -4.3280    0.1330    2.8610 hn        1 MOL      0.168585
    180 Ca1         2.6450   -0.1930    0.4310 Ca        1 MOL      1.796997
    181 O27         2.3510   -0.9540    2.8110 oh        1 MOL     -0.828700
    182 O28         1.0170    1.4730   -1.0890 oh        1 MOL     -0.828700
    183 H81         3.0300   -0.6180    3.4050 ho        1 MOL      0.403732
    184 H82         0.7580    0.9520   -1.8430 ho        1 MOL      0.403732
    185 H83         1.7060   -1.3450    3.4000 ho        1 MOL      0.403732
    186 H84         1.5600    2.1730   -1.4650 ho        1 MOL      0.403732
    187 O29         5.1930    0.0270    2.0370 oh        1 MOL     -0.828700
    188 H85         5.0040    0.4990    2.8510 ho        1 MOL      0.403732
    189 H86         6.0120   -0.4350    2.2090 ho        1 MOL      0.403732
@<TRIPOS>BOND
     1    1    2 1   
     2    1    4 1   
     3    1    5 1   
     4    1    6 1   
     5    2    3 2   
     6    2    7 1   
     7    7    8 1   
     8    7   15 1   
     9    8    9 1   
    10    8   11 1   
    11    8   16 1   
    12    9   10 2   
    13    9   19 1   
    14   11   12 1   
    15   11   17 1   
    16   11   18 1   
    17   12   13 1   
    18   12   14 1   
    19   19   20 1   
    20   19   27 1   
    21   20   21 1   
    22   20   23 1   
    23   20   28 1   
    24   21   22 2   
    25   21   38 1   
    26   23   24 1   
    27   23   25 1   
    28   23   29 1   
    29   24   26 1   
    30   24   30 1   
    31   24   31 1   
    32   25   32 1   
    33   25   33 1   
    34   25   34 1   
    35   26   35 1   
    36   26   36 1   
    37   26   37 1   
    38   38   39 1   
    39   38   46 1   
    40   39   40 1   
    41   39   42 1   
    42   39   47 1   
    43   40   41 2   
    44   40   50 1   
    45   42   43 1   
    46   42   48 1   
    47   42   49 1   
    48   43   44 1   
    49   43   45 1   
    50   50   51 1   
    51   50   54 1   
    52   51   52 1   
    53   51   55 1   
    54   51   56 1   
    55   52   53 2   
    56   52   57 1   
    57   57   58 1   
    58   57   65 1   
    59   58   59 1   
    60   58   61 1   
    61   58   66 1   
    62   59   60 2   
    63   59   69 1   
    64   61   62 1   
    65   61   67 1   
    66   61   68 1   
    67   62   63 1   
    68   62   64 1   
    69   69   70 1   
    70   69   73 1   
    71   70   71 1   
    72   70   74 1   
    73   70   75 1   
    74   71   72 2   
    75   71   76 1   
    76   76   77 1   
    77   76   85 1   
    78   77   78 1   
    79   77   80 1   
    80   77   86 1   
    81   78   79 2   
    82   78   93 1   
    83   80   81 1   
    84   80   87 1   
    85   80   88 1   
    86   81   82 1   
    87   81   89 1   
    88   81   90 1   
    89   82   83 1   
    90   82   84 2   
    91   83   91 1   
    92   83   92 1   
    93   93   94 1   
    94   93  100 1   
    95   94   95 1   
    96   94   97 1   
    97   94  101 1   
    98   95   96 2   
    99   95  109 1   
   100   97   98 1   
   101   97   99 1   
   102   97  102 1   
   103   98  103 1   
   104   98  104 1   
   105   98  105 1   
   106   99  106 1   
   107   99  107 1   
   108   99  108 1   
   109  109  110 1   
   110  109  117 1   
   111  110  111 1   
   112  110  113 1   
   113  110  118 1   
   114  111  112 2   
   115  111  123 1   
   116  113  114 1   
   117  113  119 1   
   118  113  120 1   
   119  114  115 1   
   120  114  116 2   
   121  115  121 1   
   122  115  122 1   
   123  123  124 1   
   124  123  135 1   
   125  124  125 1   
   126  124  127 1   
   127  124  136 1   
   128  125  126 2   
   129  125  144 1   
   130  127  128 1   
   131  127  137 1   
   132  127  138 1   
   133  128  129 ar  
   134  128  130 ar  
   135  129  131 ar  
   136  129  139 1   
   137  130  132 ar  
   138  130  140 1   
   139  131  133 ar  
   140  131  141 1   
   141  132  133 ar  
   142  132  142 1   
   143  133  134 1   
   144  134  143 1   
   145  144  145 1   
   146  144  153 1   
   147  145  146 1   
   148  145  148 1   
   149  145  154 1   
   150  146  147 2   
   151  146  159 1   
   152  148  149 1   
   153  148  155 1   
   154  148  156 1   
   155  149  150 1   
   156  149  157 1   
   157  149  158 1   
   158  150  151 1   
   159  150  152 1   
   160  159  160 1   
   161  159  168 1   
   162  160  161 1   
   163  160  163 1   
   164  160  169 1   
   165  161  162 2   
   166  161  174 1   
   167  163  164 1   
   168  163  170 1   
   169  163  171 1   
   170  164  165 1   
   171  164  172 1   
   172  164  173 1   
   173  165  166 1   
   174  165  167 1   
   175  174  175 1   
   176  174  179 1   
   177  175  176 1   
   178  175  177 1   
   179  175  178 1   
   180  181  183 1   
   181  181  185 1   
   182  182  184 1   
   183  182  186 1   
   184  187  188 1   
   185  187  189 1   
@<TRIPOS>SUBSTRUCTURE
     1 MOL         1 TEMP              0 ****  ****    0 ROOT
