@<TRIPOS>MOLECULE
MOL
  179   176     1     0     0
SMALL
resp


@<TRIPOS>ATOM
      1 C1          1.5280    2.5760    7.0710 c3        1 MOL     -0.329558
      2 C2          1.5580    2.2290    5.5760 c         1 MOL      0.723268
      3 O1          2.5490    1.7780    4.9760 o         1 MOL     -0.561754
      4 H1          2.4590    2.2530    7.5370 hc        1 MOL      0.088040
      5 H2          1.4150    3.6530    7.1920 hc        1 MOL      0.088040
      6 H3          0.6900    2.0660    7.5460 hc        1 MOL      0.088040
      7 N1          0.3980    2.3750    4.9260 n         1 MOL     -0.641840
      8 C3          0.3500    2.3790    3.4960 c3        1 MOL     -0.065721
      9 C4          0.8940    3.6850    2.8370 c         1 MOL      0.681478
     10 O2          0.8960    4.7880    3.3940 o         1 MOL     -0.537907
     11 C5         -1.0370    1.9490    3.0230 c3        1 MOL      0.067642
     12 C6         -1.1420    1.5310    1.5640 c         1 MOL      0.578329
     13 O3         -2.2970    1.3760    1.0570 o         1 MOL     -0.709834
     14 O4         -0.1320    1.3430    0.8130 o         1 MOL     -0.709834
     15 H4         -0.3520    2.8300    5.4190 hn        1 MOL      0.333396
     16 H5          0.9730    1.5400    3.1890 h1        1 MOL      0.111128
     17 H6         -1.7460    2.7500    3.2230 hc        1 MOL      0.015086
     18 H7         -1.4620    1.0300    3.4460 hc        1 MOL      0.015086
     19 N2          1.3340    3.5430    1.5620 n         1 MOL     -0.520954
     20 C7          1.7310    4.7210    0.7300 c3        1 MOL      0.049277
     21 C8          0.6920    5.4890    0.0800 c         1 MOL      0.403395
     22 O5          0.6800    6.7360    0.1250 o         1 MOL     -0.544606
     23 C9          2.7960    4.1130   -0.2160 c3        1 MOL     -0.121168
     24 C10         3.1930    5.0160   -1.3290 c3        1 MOL     -0.133756
     25 C11         4.3390    4.3850   -2.2130 c3        1 MOL      0.059575
     26 C12         4.8910    5.4720   -3.1640 c3        1 MOL     -0.197497
     27 N3          3.8740    5.8900   -4.1890 n4        1 MOL     -0.367965
     28 H8          1.2890    2.6320    1.1270 hn        1 MOL      0.280218
     29 H9          2.2500    5.4610    1.3310 h1        1 MOL      0.094206
     30 H10         2.5020    3.1290   -0.6030 hc        1 MOL      0.101033
     31 H11         3.6810    3.8900    0.3810 hc        1 MOL      0.101033
     32 H12         3.7270    5.8700   -0.9040 hc        1 MOL      0.044429
     33 H13         2.2910    5.2620   -1.9020 hc        1 MOL      0.044429
     34 H14         3.7990    3.6850   -2.8510 hc        1 MOL      0.064488
     35 H15         5.1430    3.9750   -1.5990 hc        1 MOL      0.064488
     36 H16         5.8140    5.0070   -3.5080 hx        1 MOL      0.148693
     37 H17         5.1850    6.2740   -2.5020 hx        1 MOL      0.148693
     38 H18         3.0880    6.4030   -3.8000 hn        1 MOL      0.342796
     39 H19         4.3560    6.5970   -4.7330 hn        1 MOL      0.342796
     40 H20         3.5690    5.1270   -4.7710 hn        1 MOL      0.342796
     41 N4         -0.2450    4.8060   -0.6390 n         1 MOL     -0.122420
     42 C13        -1.3550    5.4790   -1.2630 c3        1 MOL      0.009806
     43 C14        -2.7300    5.3670   -0.4980 c         1 MOL      0.457320
     44 O6         -3.7050    6.0520   -0.7970 o         1 MOL     -0.536356
     45 C15        -1.4910    4.9590   -2.7020 c3        1 MOL     -0.261956
     46 C16        -1.7860    3.5090   -2.7990 c         1 MOL      0.835284
     47 O7         -1.8350    2.7620   -1.7520 o         1 MOL     -0.730136
     48 O8         -1.9710    3.1030   -3.9900 o         1 MOL     -0.730136
     49 H21        -0.2180    3.7920   -0.6200 hn        1 MOL      0.128854
     50 H22        -1.1700    6.5570   -1.3500 h1        1 MOL      0.083034
     51 H23        -0.5610    5.1230   -3.2420 hc        1 MOL      0.068932
     52 H24        -2.3210    5.4680   -3.1920 hc        1 MOL      0.068932
     53 N5         -2.8110    4.4260    0.4570 n         1 MOL     -0.154354
     54 C17        -3.9230    4.1940    1.4180 c3        1 MOL     -0.204642
     55 C18        -5.0270    3.2730    0.8720 c         1 MOL      0.592679
     56 O9         -6.1160    3.1610    1.4120 o         1 MOL     -0.596213
     57 H25        -1.9770    3.8910    0.6730 hn        1 MOL      0.123544
     58 H26        -4.3420    5.1670    1.6670 h1        1 MOL      0.115538
     59 H27        -3.5510    3.7970    2.3630 h1        1 MOL      0.115538
     60 N6         -4.8580    2.5790   -0.2800 n         1 MOL     -0.190591
     61 C19        -5.8580    2.0430   -1.1340 c3        1 MOL     -0.046798
     62 C20        -6.6010    0.8050   -0.5770 c         1 MOL      0.358707
     63 O10        -7.3890    0.1170   -1.2450 o         1 MOL     -0.517913
     64 C21        -5.1930    1.6940   -2.5400 c3        1 MOL     -0.261279
     65 C22        -4.4920    0.3420   -2.6010 c         1 MOL      0.607068
     66 N7         -4.7590   -0.4900   -3.5910 n         1 MOL     -0.818457
     67 O11        -3.6870   -0.0280   -1.7550 o         1 MOL     -0.452529
     68 H28        -3.9180    2.4660   -0.6510 hn        1 MOL      0.101712
     69 H29        -6.6720    2.7610   -1.1790 h1        1 MOL      0.126950
     70 H30        -4.4630    2.4560   -2.8150 hc        1 MOL      0.115509
     71 H31        -5.8990    1.6400   -3.3680 hc        1 MOL      0.115509
     72 H32        -5.4350   -0.3010   -4.3130 hn        1 MOL      0.382066
     73 H33        -4.3240   -1.4080   -3.5900 hn        1 MOL      0.382066
     74 N8         -6.3570    0.4710    0.7010 n         1 MOL     -0.010858
     75 C23        -6.9070   -0.6510    1.5200 c3        1 MOL     -0.525423
     76 C24        -6.0650   -1.9590    1.6360 c         1 MOL      0.764562
     77 O12        -6.5020   -2.8930    2.2590 o         1 MOL     -0.520889
     78 H34        -5.7430    1.0730    1.2290 hn        1 MOL      0.232420
     79 H35        -7.8150   -1.0650    1.0700 h1        1 MOL      0.179613
     80 H36        -7.0350   -0.2200    2.5110 h1        1 MOL      0.179613
     81 N9         -4.7400   -1.8740    1.1390 n         1 MOL     -0.575085
     82 C25        -3.8250   -2.9970    1.0960 c3        1 MOL      0.132449
     83 C26        -2.4050   -2.5280    0.9570 c         1 MOL      0.510292
     84 O13        -2.1830   -1.5270    0.3050 o         1 MOL     -0.471279
     85 C27        -4.0840   -3.7530   -0.1990 c3        1 MOL      0.284948
     86 C28        -5.4780   -4.3460   -0.5010 ca        1 MOL     -0.053266
     87 C29        -5.7960   -5.4740    0.2460 ca        1 MOL     -0.218777
     88 C30        -6.3180   -3.8320   -1.4950 ca        1 MOL     -0.218777
     89 C31        -6.9970   -6.1240    0.0070 ca        1 MOL     -0.166811
     90 C32        -7.5550   -4.4960   -1.6900 ca        1 MOL     -0.166811
     91 C33        -7.8580   -5.6890   -0.9660 ca        1 MOL      0.265268
     92 O14        -9.0180   -6.2890   -1.1860 oh        1 MOL     -0.457082
     93 H37        -4.3960   -0.9870    0.8070 hn        1 MOL      0.224449
     94 H38        -3.9540   -3.7400    1.8880 h1        1 MOL      0.006201
     95 H39        -3.3120   -4.5210   -0.2060 hc        1 MOL     -0.070554
     96 H40        -3.9200   -3.1220   -1.0670 hc        1 MOL     -0.070554
     97 H41        -5.1400   -5.9790    0.9400 ha        1 MOL      0.158356
     98 H42        -6.0460   -2.9540   -2.0670 ha        1 MOL      0.158356
     99 H43        -7.2750   -6.9850    0.5960 ha        1 MOL      0.125223
    100 H44        -8.2430   -4.1100   -2.4120 ha        1 MOL      0.125223
    101 H45        -9.4060   -5.9060   -1.9730 ho        1 MOL      0.348611
    102 N10        -1.4890   -3.2750    1.5740 n         1 MOL     -0.466108
    103 C34        -0.0490   -2.8950    1.5710 c3        1 MOL     -0.043545
    104 C35         0.7730   -3.9260    0.7360 c         1 MOL      0.471866
    105 O15         0.6290   -5.1290    0.9080 o         1 MOL     -0.555732
    106 C36         0.5640   -2.7360    3.0040 c3        1 MOL      0.252733
    107 C37        -0.3190   -1.7350    3.7450 c3        1 MOL      0.194454
    108 C38         2.0640   -2.3700    2.9520 c3        1 MOL     -0.460134
    109 C39         0.0220   -1.4710    5.2150 c3        1 MOL     -0.382749
    110 H46        -1.7590   -4.1120    2.0780 hn        1 MOL      0.306756
    111 H47         0.1290   -1.9120    1.1190 h1        1 MOL      0.007769
    112 H48         0.4110   -3.7110    3.4700 hc        1 MOL     -0.032913
    113 H49        -1.3430   -2.1150    3.7370 hc        1 MOL     -0.024810
    114 H50        -0.3200   -0.8270    3.1470 hc        1 MOL     -0.024810
    115 H51         2.5190   -2.1410    3.9130 hc        1 MOL      0.119059
    116 H52         2.6370   -3.2490    2.6650 hc        1 MOL      0.119059
    117 H53         2.1320   -1.5390    2.2400 hc        1 MOL      0.119059
    118 H54        -0.8070   -0.9460    5.7020 hc        1 MOL      0.090163
    119 H55         0.1920   -2.4250    5.7230 hc        1 MOL      0.090163
    120 H56         0.8700   -0.7960    5.1690 hc        1 MOL      0.090163
    121 N11         1.8060   -3.5310   -0.0080 n         1 MOL     -0.072098
    122 C40         2.7740   -4.4160   -0.6980 c3        1 MOL     -0.139613
    123 C41         4.2090   -4.0940   -0.3480 c         1 MOL      0.460205
    124 O16         4.4780   -3.0990    0.3620 o         1 MOL     -0.418414
    125 C42         2.5790   -4.3570   -2.2090 c3        1 MOL      0.033983
    126 O17         2.7660   -3.0010   -2.5800 oh        1 MOL     -0.509053
    127 H57         1.8990   -2.5620   -0.2850 hn        1 MOL      0.122177
    128 H58         2.5950   -5.4420   -0.3890 h1        1 MOL      0.097745
    129 H59         1.5290   -4.5430   -2.4680 h1        1 MOL      0.063363
    130 H60         3.2660   -5.0080   -2.7610 h1        1 MOL      0.063363
    131 H61         2.0020   -2.5420   -2.2140 ho        1 MOL      0.331532
    132 N12         5.2400   -4.8660   -0.8690 n         1 MOL     -0.371829
    133 C43         6.6910   -4.8030   -0.4480 c3        1 MOL      0.016532
    134 C44         7.4090   -3.4780   -0.7620 c         1 MOL      0.615704
    135 O18         8.0480   -3.0180    0.1620 o         1 MOL     -0.517546
    136 C45         7.4490   -5.9730   -1.1370 c3        1 MOL     -0.339627
    137 H62         5.0180   -5.7240   -1.3530 hn        1 MOL      0.271592
    138 H63         6.6180   -4.9740    0.6220 h1        1 MOL      0.103282
    139 H64         8.4710   -5.8750   -0.7570 hc        1 MOL      0.106895
    140 H65         6.9460   -6.9250   -0.9460 hc        1 MOL      0.106895
    141 H66         7.4770   -5.8030   -2.2120 hc        1 MOL      0.106895
    142 N13         7.1790   -2.8930   -1.9710 n         1 MOL     -0.536690
    143 C46         7.7490   -1.6130   -2.2710 c3        1 MOL      0.139293
    144 C47         7.0590   -0.5020   -1.3580 c         1 MOL      0.189785
    145 O19         7.6610    0.4960   -0.9470 o         1 MOL     -0.485891
    146 C48         7.5010   -1.2360   -3.7810 c3        1 MOL     -0.348112
    147 H67         6.5500   -3.3360   -2.6180 hn        1 MOL      0.314457
    148 H68         8.8170   -1.5250   -2.0680 h1        1 MOL      0.111928
    149 H69         7.7880   -0.1970   -3.9630 hc        1 MOL      0.102160
    150 H70         8.1530   -1.7000   -4.5250 hc        1 MOL      0.102160
    151 H71         6.4740   -1.3710   -4.1020 hc        1 MOL      0.102160
    152 N14         5.8980   -0.8360   -0.8240 n         1 MOL      0.137308
    153 C49         5.2690    0.0900    0.1720 c3        1 MOL     -0.314390
    154 C50         5.7040   -0.0690    1.6170 c         1 MOL      0.593686
    155 O20         5.9240    0.9210    2.3690 o         1 MOL     -0.542343
    156 C51         3.7700    0.1460   -0.0560 c3        1 MOL      0.130902
    157 C52         3.3010    0.1500   -1.5490 c3        1 MOL      0.185792
    158 C53         1.7950    0.1120   -1.6310 c         1 MOL      0.672305
    159 O21         1.1580    1.1120   -2.0080 o         1 MOL     -0.734391
    160 O22         1.1900   -0.9410   -1.2930 o         1 MOL     -0.734391
    161 H72         5.4850   -1.7210   -1.1060 hn        1 MOL      0.145716
    162 H73         5.5880    1.1010   -0.0850 h1        1 MOL      0.093601
    163 H74         3.3430    0.9980    0.4760 hc        1 MOL     -0.030914
    164 H75         3.3530   -0.7210    0.4440 hc        1 MOL     -0.030914
    165 H76         3.7630   -0.6430   -2.1350 hc        1 MOL     -0.116266
    166 H77         3.6450    1.0750   -2.0150 hc        1 MOL     -0.116266
    167 N15         5.8400   -1.3400    2.0590 n         1 MOL     -0.208480
    168 C54         6.4740   -1.6140    3.4060 c3        1 MOL     -0.267868
    169 H78         6.0760   -2.5440    3.8120 h1        1 MOL      0.112446
    170 H79         7.5550   -1.7020    3.2880 h1        1 MOL      0.112446
    171 H80         6.2480   -0.7940    4.0880 h1        1 MOL      0.112446
    172 H81         5.5690   -2.1040    1.4520 hn        1 MOL      0.172337
    173 Ca1        -1.1080    0.3400   -1.2210 Ca        1 MOL      1.705782
    174 O23        -1.4920   -2.2010   -2.5670 oh        1 MOL     -0.869686
    175 H82        -0.9390   -1.9630   -3.3140 ho        1 MOL      0.413246
    176 H83        -1.2620   -3.1120   -2.3820 ho        1 MOL      0.413246
    177 O24        -1.2040    0.4500   -3.9990 oh        1 MOL     -0.869686
    178 H84        -1.3890    0.0900   -4.8690 ho        1 MOL      0.413246
    179 H85        -1.4840    1.3630   -4.0520 ho        1 MOL      0.413246
@<TRIPOS>BOND
     1    1    2 1   
     2    1    4 1   
     3    1    5 1   
     4    1    6 1   
     5    2    3 2   
     6    2    7 1   
     7    7    8 1   
     8    7   15 1   
     9    8    9 1   
    10    8   11 1   
    11    8   16 1   
    12    9   10 2   
    13    9   19 1   
    14   11   12 1   
    15   11   17 1   
    16   11   18 1   
    17   12   13 1   
    18   12   14 1   
    19   19   20 1   
    20   19   28 1   
    21   20   21 1   
    22   20   23 1   
    23   20   29 1   
    24   21   22 2   
    25   21   41 1   
    26   23   24 1   
    27   23   30 1   
    28   23   31 1   
    29   24   25 1   
    30   24   32 1   
    31   24   33 1   
    32   25   26 1   
    33   25   34 1   
    34   25   35 1   
    35   26   27 1   
    36   26   36 1   
    37   26   37 1   
    38   27   38 1   
    39   27   39 1   
    40   27   40 1   
    41   41   42 1   
    42   41   49 1   
    43   42   43 1   
    44   42   45 1   
    45   42   50 1   
    46   43   44 2   
    47   43   53 1   
    48   45   46 1   
    49   45   51 1   
    50   45   52 1   
    51   46   47 1   
    52   46   48 1   
    53   53   54 1   
    54   53   57 1   
    55   54   55 1   
    56   54   58 1   
    57   54   59 1   
    58   55   56 2   
    59   55   60 1   
    60   60   61 1   
    61   60   68 1   
    62   61   62 1   
    63   61   64 1   
    64   61   69 1   
    65   62   63 2   
    66   62   74 1   
    67   64   65 1   
    68   64   70 1   
    69   64   71 1   
    70   65   66 1   
    71   65   67 2   
    72   66   72 1   
    73   66   73 1   
    74   74   75 1   
    75   74   78 1   
    76   75   76 1   
    77   75   79 1   
    78   75   80 1   
    79   76   77 2   
    80   76   81 1   
    81   81   82 1   
    82   81   93 1   
    83   82   83 1   
    84   82   85 1   
    85   82   94 1   
    86   83   84 2   
    87   83  102 1   
    88   85   86 1   
    89   85   95 1   
    90   85   96 1   
    91   86   87 ar  
    92   86   88 ar  
    93   87   89 ar  
    94   87   97 1   
    95   88   90 ar  
    96   88   98 1   
    97   89   91 ar  
    98   89   99 1   
    99   90   91 ar  
   100   90  100 1   
   101   91   92 1   
   102   92  101 1   
   103  102  103 1   
   104  102  110 1   
   105  103  104 1   
   106  103  106 1   
   107  103  111 1   
   108  104  105 2   
   109  104  121 1   
   110  106  107 1   
   111  106  108 1   
   112  106  112 1   
   113  107  109 1   
   114  107  113 1   
   115  107  114 1   
   116  108  115 1   
   117  108  116 1   
   118  108  117 1   
   119  109  118 1   
   120  109  119 1   
   121  109  120 1   
   122  121  122 1   
   123  121  127 1   
   124  122  123 1   
   125  122  125 1   
   126  122  128 1   
   127  123  124 2   
   128  123  132 1   
   129  125  126 1   
   130  125  129 1   
   131  125  130 1   
   132  126  131 1   
   133  132  133 1   
   134  132  137 1   
   135  133  134 1   
   136  133  136 1   
   137  133  138 1   
   138  134  135 2   
   139  134  142 1   
   140  136  139 1   
   141  136  140 1   
   142  136  141 1   
   143  142  143 1   
   144  142  147 1   
   145  143  144 1   
   146  143  146 1   
   147  143  148 1   
   148  144  145 2   
   149  144  152 1   
   150  146  149 1   
   151  146  150 1   
   152  146  151 1   
   153  152  153 1   
   154  152  161 1   
   155  153  154 1   
   156  153  156 1   
   157  153  162 1   
   158  154  155 2   
   159  154  167 1   
   160  156  157 1   
   161  156  163 1   
   162  156  164 1   
   163  157  158 1   
   164  157  165 1   
   165  157  166 1   
   166  158  159 1   
   167  158  160 1   
   168  167  168 1   
   169  167  172 1   
   170  168  169 1   
   171  168  170 1   
   172  168  171 1   
   173  174  175 1   
   174  174  176 1   
   175  177  178 1   
   176  177  179 1   
@<TRIPOS>SUBSTRUCTURE
     1 MOL         1 TEMP              0 ****  ****    0 ROOT
