@<TRIPOS>MOLECULE
MOL
  172   171     1     0     0
SMALL
resp


@<TRIPOS>ATOM
      1 C1         -0.2170   -3.3350    6.0220 c3        1 MOL     -0.396835
      2 C2          0.2940   -3.4030    4.6140 c         1 MOL      0.768009
      3 O1         -0.3950   -3.8310    3.6640 o         1 MOL     -0.589405
      4 H1         -1.2820   -3.5680    6.0330 hc        1 MOL      0.095636
      5 H2          0.3190   -4.0550    6.6390 hc        1 MOL      0.095636
      6 H3         -0.0620   -2.3310    6.4170 hc        1 MOL      0.095636
      7 N1          1.5750   -3.2010    4.3810 n         1 MOL     -0.633062
      8 C3          2.2140   -3.0720    3.0270 c3        1 MOL      0.278243
      9 C4          2.2050   -4.3810    2.1880 c         1 MOL      0.607880
     10 O2          2.6060   -5.4190    2.7440 o         1 MOL     -0.612344
     11 C5          3.7110   -2.5970    3.0810 c3        1 MOL     -0.403366
     12 C6          4.3330   -2.4160    1.7670 c         1 MOL      0.848784
     13 O3          5.5190   -2.7830    1.6610 o         1 MOL     -0.655451
     14 O4          3.7080   -1.8530    0.8500 o         1 MOL     -0.655451
     15 H4          2.2020   -2.9910    5.1500 hn        1 MOL      0.305870
     16 H5          1.7030   -2.3040    2.4500 h1        1 MOL     -0.013847
     17 H6          4.3210   -3.3750    3.5410 hc        1 MOL      0.070158
     18 H7          3.8410   -1.6280    3.5510 hc        1 MOL      0.070158
     19 N2          1.9310   -4.3330    0.9070 n         1 MOL     -0.536598
     20 C7          1.9790   -5.3690   -0.0400 c3        1 MOL      0.467522
     21 C8          2.9320   -5.1640   -1.2720 c         1 MOL      0.285050
     22 O5          3.0540   -6.0520   -2.0700 o         1 MOL     -0.539355
     23 C9          0.5660   -5.5500   -0.4950 c3        1 MOL     -0.309817
     24 H8          1.7590   -3.3850    0.5910 hn        1 MOL      0.253463
     25 H9          2.2250   -6.2950    0.4660 h1        1 MOL     -0.010053
     26 H10        -0.1240   -5.6030    0.3510 hc        1 MOL      0.072587
     27 H11         0.3750   -4.7920   -1.2490 hc        1 MOL      0.072587
     28 H12         0.4150   -6.5450   -0.9100 hc        1 MOL      0.072587
     29 N3          3.6390   -4.0110   -1.3980 n         1 MOL     -0.168941
     30 C10         4.4390   -3.6470   -2.6410 c3        1 MOL      0.237490
     31 C11         5.7970   -2.9140   -2.3370 c         1 MOL      0.269568
     32 O6          6.5720   -2.6840   -3.3300 o         1 MOL     -0.538592
     33 C12         3.5750   -2.7480   -3.5620 c3        1 MOL     -0.326705
     34 C13         3.0190   -1.4550   -3.0230 c         1 MOL      0.904845
     35 O7          3.6620   -0.8790   -2.1250 o         1 MOL     -0.746850
     36 O8          2.0560   -0.9140   -3.5570 o         1 MOL     -0.746850
     37 H13         3.5580   -3.2730   -0.7050 hn        1 MOL      0.006164
     38 H14         4.7040   -4.5620   -3.1670 h1        1 MOL      0.043396
     39 H15         2.6850   -3.3140   -3.8260 hc        1 MOL      0.059293
     40 H16         4.2770   -2.5550   -4.3720 hc        1 MOL      0.059293
     41 N4          6.0460   -2.5120   -1.0940 n         1 MOL     -0.129050
     42 C14         7.2430   -1.6800   -0.7590 c3        1 MOL     -0.224174
     43 C15         7.3250   -0.2230   -1.0070 c         1 MOL      0.630536
     44 O9          8.1910    0.4240   -0.5110 o         1 MOL     -0.645540
     45 H17         5.4180   -2.6290   -0.3200 hn        1 MOL      0.095936
     46 H18         8.0610   -2.1280   -1.3320 h1        1 MOL      0.117206
     47 H19         7.5200   -1.8050    0.2930 h1        1 MOL      0.117206
     48 N5          6.3110    0.4010   -1.6070 n         1 MOL     -0.455027
     49 C16         6.3090    1.8320   -2.0360 c3        1 MOL      0.152989
     50 C17         6.2270    2.9450   -0.9770 c         1 MOL      0.387341
     51 O10         6.2380    4.0850   -1.3950 o         1 MOL     -0.526428
     52 C18         5.1220    2.0960   -3.0410 c3        1 MOL     -0.287602
     53 C19         3.7300    2.0360   -2.4450 c         1 MOL      0.693552
     54 N6          2.7430    2.2400   -3.2540 n         1 MOL     -0.608674
     55 O11         3.4990    1.9120   -1.2370 o         1 MOL     -0.780367
     56 H20         5.5650   -0.1980   -1.9130 hn        1 MOL      0.292248
     57 H21         7.2630    1.9150   -2.5420 h1        1 MOL      0.088293
     58 H22         5.2240    1.2600   -3.7350 hc        1 MOL      0.079141
     59 H23         5.2990    2.9800   -3.6410 hc        1 MOL      0.079141
     60 H24         3.0680    2.0500   -4.1940 hn        1 MOL      0.326440
     61 H25         1.8360    1.9290   -2.9530 hn        1 MOL      0.326440
     62 N7          6.1250    2.6490    0.3470 n         1 MOL     -0.212396
     63 C20         6.1720    3.6490    1.4020 c3        1 MOL     -0.333533
     64 C21         4.8160    4.3070    1.6800 c         1 MOL      0.583732
     65 O12         4.7650    5.0580    2.6680 o         1 MOL     -0.592773
     66 H26         6.1130    1.6740    0.6150 hn        1 MOL      0.311777
     67 H27         6.6530    4.5090    0.9210 h1        1 MOL      0.140288
     68 H28         6.7350    3.3030    2.2700 h1        1 MOL      0.140288
     69 N8          3.7950    3.9950    0.8640 n         1 MOL     -0.212152
     70 C22         2.4560    4.6110    0.9800 c3        1 MOL     -0.533811
     71 C23         1.3610    3.5410    1.1690 c         1 MOL      0.868442
     72 O13         1.4580    2.4170    0.6170 o         1 MOL     -0.558541
     73 C24         2.2070    5.4550   -0.2620 c3        1 MOL      0.629289
     74 C25         3.0020    6.7130   -0.3350 c3        1 MOL     -0.565298
     75 O14         2.4140    4.7430   -1.4140 oh        1 MOL     -0.586965
     76 H29         3.9550    3.4580    0.0300 hn        1 MOL      0.382334
     77 H30         2.4020    5.3160    1.8150 h1        1 MOL      0.144844
     78 H31         1.1460    5.7070   -0.3160 h1        1 MOL     -0.028058
     79 H32         2.1260    3.8240   -1.3770 ho        1 MOL      0.320793
     80 H33         2.3180    7.4820   -0.6780 hc        1 MOL      0.137367
     81 H34         3.4430    6.9240    0.6400 hc        1 MOL      0.137367
     82 H35         3.8270    6.7110   -1.0480 hc        1 MOL      0.137367
     83 N9          0.2740    3.8740    1.8610 n         1 MOL     -0.741234
     84 C26        -0.8850    3.0140    1.9960 c3        1 MOL     -0.130352
     85 C27        -1.6470    3.1000    0.6590 c         1 MOL      0.686251
     86 O15        -2.1600    4.1600    0.2920 o         1 MOL     -0.591632
     87 C28        -1.7740    3.2520    3.1520 c3        1 MOL      0.346187
     88 C29        -1.0080    3.6170    4.5200 c3        1 MOL      0.072781
     89 C30        -2.5150    2.0200    3.4170 c3        1 MOL     -0.529377
     90 C31        -2.0020    3.8400    5.6820 c3        1 MOL     -0.282334
     91 H36         0.1720    4.8400    2.1560 hn        1 MOL      0.340710
     92 H37        -0.4930    2.0110    2.1420 h1        1 MOL      0.108248
     93 H38        -2.4900    4.0560    2.9380 hc        1 MOL     -0.053236
     94 H39        -0.3950    4.5160    4.4920 hc        1 MOL      0.003225
     95 H40        -0.4260    2.7210    4.7140 hc        1 MOL      0.003225
     96 H41        -2.8640    1.6610    2.4450 hc        1 MOL      0.124645
     97 H42        -1.8920    1.3470    4.0010 hc        1 MOL      0.124645
     98 H43        -3.3970    2.2450    4.0230 hc        1 MOL      0.124645
     99 H44        -2.8250    4.5150    5.4840 hc        1 MOL      0.063403
    100 H45        -2.3180    2.8730    6.0750 hc        1 MOL      0.063403
    101 H46        -1.3840    4.2430    6.4770 hc        1 MOL      0.063403
    102 N10        -1.6750    1.9680   -0.1150 n         1 MOL     -0.525803
    103 C32        -2.4990    1.9000   -1.3240 c3        1 MOL      0.348125
    104 C33        -3.9430    1.4410   -0.9510 c         1 MOL      0.404073
    105 O16        -4.2210    0.9870    0.1430 o         1 MOL     -0.304793
    106 C34        -1.8520    1.1190   -2.4480 c3        1 MOL     -0.564354
    107 C35        -0.3680    1.3700   -2.6000 c         1 MOL      0.925268
    108 O17        -0.0950    2.2430   -3.4590 o         1 MOL     -0.704105
    109 O18         0.5180    0.8270   -1.8930 o         1 MOL     -0.704105
    110 H47        -1.1750    1.1830    0.2780 hn        1 MOL      0.271889
    111 H48        -2.5110    2.9600   -1.5900 h1        1 MOL      0.043654
    112 H49        -2.3760    1.3790   -3.3700 hc        1 MOL      0.117933
    113 H50        -1.9910    0.0420   -2.3350 hc        1 MOL      0.117933
    114 N11        -4.9250    1.7060   -1.8510 n         1 MOL     -0.781212
    115 C36        -6.2680    1.3700   -1.4350 c3        1 MOL      0.553811
    116 C37        -6.4780   -0.1240   -1.1630 c         1 MOL      0.182727
    117 O19        -7.1960   -0.3790   -0.1600 o         1 MOL     -0.469837
    118 C38        -7.2100    1.7820   -2.4460 c3        1 MOL     -0.262989
    119 C39        -8.6880    1.5590   -2.0900 ca        1 MOL      0.114984
    120 C40        -9.5550    0.8100   -2.9110 ca        1 MOL     -0.219607
    121 C41        -9.0650    1.9480   -0.8250 ca        1 MOL     -0.219607
    122 C42       -10.8520    0.4710   -2.4430 ca        1 MOL     -0.009947
    123 C43       -10.3650    1.6910   -0.3430 ca        1 MOL     -0.009947
    124 C44       -11.2740    0.9790   -1.1630 ca        1 MOL     -0.254874
    125 H51        -4.8050    2.1480   -2.7470 hn        1 MOL      0.368880
    126 H52        -6.4490    1.7840   -0.4450 h1        1 MOL      0.034281
    127 H53        -7.1040    1.2900   -3.4140 hc        1 MOL      0.062867
    128 H54        -7.0460    2.8390   -2.6880 hc        1 MOL      0.062867
    129 H55        -9.2550    0.5250   -3.9050 ha        1 MOL      0.121598
    130 H56        -8.3730    2.4970   -0.2160 ha        1 MOL      0.121598
    131 H57       -11.4660   -0.0410   -3.1720 ha        1 MOL      0.090093
    132 H58       -10.7080    1.9690    0.6420 ha        1 MOL      0.090093
    133 H59       -12.1970    0.6300   -0.7150 ha        1 MOL      0.136829
    134 N12        -5.9070   -1.1180   -1.8590 n         1 MOL      0.089118
    135 C45        -6.1040   -2.5240   -1.4240 c3        1 MOL      0.007181
    136 C46        -5.3180   -2.8740   -0.1300 c         1 MOL      0.287981
    137 O20        -5.4000   -3.9530    0.3830 o         1 MOL     -0.499875
    138 C47        -5.7650   -3.3580   -2.6510 c3        1 MOL     -0.030700
    139 C48        -5.7860   -2.3830   -3.8230 c3        1 MOL     -0.316012
    140 C49        -5.3660   -1.0640   -3.2170 c3        1 MOL      0.039002
    141 H60        -7.1560   -2.5720   -1.1670 h1        1 MOL      0.077801
    142 H61        -4.8050   -3.8680   -2.5550 hc        1 MOL      0.054003
    143 H62        -6.5950   -4.0560   -2.7600 hc        1 MOL      0.054003
    144 H63        -5.0060   -2.8620   -4.4090 hc        1 MOL      0.104121
    145 H64        -6.7630   -2.2820   -4.3010 hc        1 MOL      0.104121
    146 H65        -4.2860   -0.9040   -3.2020 h1        1 MOL      0.043726
    147 H66        -5.8500   -0.2720   -3.7840 h1        1 MOL      0.043726
    148 N13        -4.5740   -1.8760    0.3680 n         1 MOL      0.039711
    149 C50        -3.9280   -1.9770    1.6980 c3        1 MOL     -0.162058
    150 C51        -4.7400   -1.3510    2.8250 c         1 MOL      0.534109
    151 O21        -4.7380   -1.8820    3.9160 o         1 MOL     -0.551385
    152 C52        -2.4790   -1.3710    1.6110 c3        1 MOL     -0.135632
    153 C53        -1.6290   -2.0970    0.5600 c3        1 MOL      0.375487
    154 C54        -0.2520   -1.5540    0.4930 c         1 MOL      0.484224
    155 O22         0.5690   -2.1100   -0.2550 o         1 MOL     -0.741766
    156 O23         0.0270   -0.5130    1.0830 o         1 MOL     -0.741766
    157 H67        -4.6550   -0.9470   -0.0210 hn        1 MOL     -0.094622
    158 H68        -3.7050   -3.0210    1.8890 h1        1 MOL      0.112594
    159 H69        -1.9790   -1.3740    2.5840 hc        1 MOL      0.043647
    160 H70        -2.5670   -0.3270    1.3270 hc        1 MOL      0.043647
    161 H71        -2.0680   -2.0360   -0.4400 hc        1 MOL     -0.038614
    162 H72        -1.6230   -3.1770    0.6920 hc        1 MOL     -0.038614
    163 N14        -5.3980   -0.2100    2.4890 n         1 MOL     -0.171760
    164 C55        -6.4350    0.3630    3.4030 c3        1 MOL     -0.243965
    165 H73        -7.4090   -0.0610    3.1580 h1        1 MOL      0.092911
    166 H74        -6.1840    0.1220    4.4360 h1        1 MOL      0.092911
    167 H75        -6.4700    1.4460    3.2800 h1        1 MOL      0.092911
    168 H76        -5.2400    0.1780    1.5650 hn        1 MOL      0.158921
    169 Ca1         2.2350   -0.0790   -0.1690 Ca        1 MOL      1.771214
    170 O24         3.8810    1.0520    1.8030 oh        1 MOL     -1.013393
    171 H77         4.7310    1.0950    2.2480 ho        1 MOL      0.450932
    172 H78         3.2320    1.1190    2.5050 ho        1 MOL      0.450932
@<TRIPOS>BOND
     1    1    2 1   
     2    1    4 1   
     3    1    5 1   
     4    1    6 1   
     5    2    3 2   
     6    2    7 1   
     7    7    8 1   
     8    7   15 1   
     9    8    9 1   
    10    8   11 1   
    11    8   16 1   
    12    9   10 2   
    13    9   19 1   
    14   11   12 1   
    15   11   17 1   
    16   11   18 1   
    17   12   13 1   
    18   12   14 1   
    19   19   20 1   
    20   19   24 1   
    21   20   21 1   
    22   20   23 1   
    23   20   25 1   
    24   21   22 2   
    25   21   29 1   
    26   23   26 1   
    27   23   27 1   
    28   23   28 1   
    29   29   30 1   
    30   29   37 1   
    31   30   31 1   
    32   30   33 1   
    33   30   38 1   
    34   31   32 2   
    35   31   41 1   
    36   33   34 1   
    37   33   39 1   
    38   33   40 1   
    39   34   35 1   
    40   34   36 1   
    41   41   42 1   
    42   41   45 1   
    43   42   43 1   
    44   42   46 1   
    45   42   47 1   
    46   43   44 2   
    47   43   48 1   
    48   48   49 1   
    49   48   56 1   
    50   49   50 1   
    51   49   52 1   
    52   49   57 1   
    53   50   51 2   
    54   50   62 1   
    55   52   53 1   
    56   52   58 1   
    57   52   59 1   
    58   53   54 1   
    59   53   55 2   
    60   54   60 1   
    61   54   61 1   
    62   62   63 1   
    63   62   66 1   
    64   63   64 1   
    65   63   67 1   
    66   63   68 1   
    67   64   65 2   
    68   64   69 1   
    69   69   70 1   
    70   69   76 1   
    71   70   71 1   
    72   70   73 1   
    73   70   77 1   
    74   71   72 2   
    75   71   83 1   
    76   73   74 1   
    77   73   75 1   
    78   73   78 1   
    79   74   80 1   
    80   74   81 1   
    81   74   82 1   
    82   75   79 1   
    83   83   84 1   
    84   83   91 1   
    85   84   85 1   
    86   84   87 1   
    87   84   92 1   
    88   85   86 2   
    89   85  102 1   
    90   87   88 1   
    91   87   89 1   
    92   87   93 1   
    93   88   90 1   
    94   88   94 1   
    95   88   95 1   
    96   89   96 1   
    97   89   97 1   
    98   89   98 1   
    99   90   99 1   
   100   90  100 1   
   101   90  101 1   
   102  102  103 1   
   103  102  110 1   
   104  103  104 1   
   105  103  106 1   
   106  103  111 1   
   107  104  105 2   
   108  104  114 1   
   109  106  107 1   
   110  106  112 1   
   111  106  113 1   
   112  107  108 1   
   113  107  109 1   
   114  114  115 1   
   115  114  125 1   
   116  115  116 1   
   117  115  118 1   
   118  115  126 1   
   119  116  117 2   
   120  116  134 1   
   121  118  119 1   
   122  118  127 1   
   123  118  128 1   
   124  119  120 ar  
   125  119  121 ar  
   126  120  122 ar  
   127  120  129 1   
   128  121  123 ar  
   129  121  130 1   
   130  122  124 ar  
   131  122  131 1   
   132  123  124 ar  
   133  123  132 1   
   134  124  133 1   
   135  134  135 1   
   136  134  140 1   
   137  135  136 1   
   138  135  138 1   
   139  135  141 1   
   140  136  137 2   
   141  136  148 1   
   142  138  139 1   
   143  138  142 1   
   144  138  143 1   
   145  139  140 1   
   146  139  144 1   
   147  139  145 1   
   148  140  146 1   
   149  140  147 1   
   150  148  149 1   
   151  148  157 1   
   152  149  150 1   
   153  149  152 1   
   154  149  158 1   
   155  150  151 2   
   156  150  163 1   
   157  152  153 1   
   158  152  159 1   
   159  152  160 1   
   160  153  154 1   
   161  153  161 1   
   162  153  162 1   
   163  154  155 1   
   164  154  156 1   
   165  163  164 1   
   166  163  168 1   
   167  164  165 1   
   168  164  166 1   
   169  164  167 1   
   170  170  171 1   
   171  170  172 1   
@<TRIPOS>SUBSTRUCTURE
     1 MOL         1 TEMP              0 ****  ****    0 ROOT
