@<TRIPOS>MOLECULE
MOL
  182   178     1     0     0
SMALL
resp


@<TRIPOS>ATOM
      1 C1          2.1550    2.1740    5.7780 c3        1 MOL     -0.307301
      2 C2          1.5330    2.0930    4.3600 c         1 MOL      0.768811
      3 O1          2.3190    2.1950    3.4230 o         1 MOL     -0.635354
      4 H1          2.1860    1.1760    6.2180 hc        1 MOL      0.080976
      5 H2          3.1680    2.5710    5.7090 hc        1 MOL      0.080976
      6 H3          1.5490    2.8280    6.4050 hc        1 MOL      0.080976
      7 N1          0.1760    1.9200    4.1290 n         1 MOL     -0.584612
      8 C3         -0.3900    2.0050    2.7540 c3        1 MOL     -0.019529
      9 C4         -0.2260    3.4340    2.2160 c         1 MOL      0.425178
     10 O2         -0.8970    4.3630    2.7470 o         1 MOL     -0.527199
     11 C5         -1.9390    1.6480    2.9010 c3        1 MOL     -0.250668
     12 C6         -2.6940    1.5550    1.5400 c         1 MOL      0.740959
     13 O3         -3.8310    1.0580    1.5760 o         1 MOL     -0.724739
     14 O4         -2.1480    1.8460    0.4770 o         1 MOL     -0.724739
     15 H4         -0.3620    1.6940    4.9640 hn        1 MOL      0.318819
     16 H5          0.1430    1.3720    2.0480 h1        1 MOL      0.069885
     17 H6         -2.4480    2.4110    3.4920 hc        1 MOL      0.102909
     18 H7         -1.9280    0.6720    3.3890 hc        1 MOL      0.102909
     19 N2          0.6410    3.6810    1.2790 n         1 MOL     -0.019301
     20 C7          1.1530    5.0750    0.9890 c3        1 MOL     -0.243277
     21 C8          0.0390    5.8890    0.2900 c         1 MOL      0.472932
     22 O5         -0.0700    7.1500    0.4290 o         1 MOL     -0.555516
     23 C9          2.3860    4.9230    0.0870 c3        1 MOL     -0.006423
     24 C10         3.1830    6.1790   -0.4140 c3        1 MOL     -0.108827
     25 C11         4.3820    5.8490   -1.2470 c3        1 MOL     -0.071639
     26 C12         5.7100    5.6530   -0.4360 c3        1 MOL      0.138443
     27 N3          6.8530    5.4630   -1.3340 n4        1 MOL     -0.502703
     28 H8          1.0560    2.8620    0.8610 hn        1 MOL      0.247890
     29 H9          1.4350    5.5520    1.9300 h1        1 MOL      0.143968
     30 H10         2.1080    4.3570   -0.7940 hc        1 MOL      0.060791
     31 H11         3.0220    4.2000    0.6100 hc        1 MOL      0.060791
     32 H12         3.5410    6.6450    0.5080 hc        1 MOL      0.068253
     33 H13         2.4960    6.8420   -0.9210 hc        1 MOL      0.068253
     34 H14         4.5330    6.7890   -1.7860 hc        1 MOL      0.050341
     35 H15         4.2690    5.0810   -2.0100 hc        1 MOL      0.050341
     36 H16         5.7240    4.7420    0.1610 hx        1 MOL      0.065733
     37 H17         5.9440    6.4530    0.2670 hx        1 MOL      0.065733
     38 H18         7.7100    5.4270   -0.8090 hn        1 MOL      0.361548
     39 H19         6.8440    4.6170   -1.8860 hn        1 MOL      0.361548
     40 H20         6.8750    6.3360   -1.8420 hn        1 MOL      0.361548
     41 N4         -0.8400    5.1590   -0.4120 n         1 MOL     -0.309910
     42 C13        -1.9230    5.6150   -1.2930 c3        1 MOL      0.046279
     43 C14        -3.3430    5.2630   -0.7450 c         1 MOL      0.430070
     44 O6         -4.2760    5.7800   -1.2970 o         1 MOL     -0.541189
     45 C15        -1.6960    5.1770   -2.7340 c3        1 MOL     -0.163266
     46 C16        -1.2220    3.7320   -2.9940 c         1 MOL      0.767156
     47 O7         -0.4540    3.5220   -3.9590 o         1 MOL     -0.722858
     48 O8         -1.6710    2.7830   -2.2740 o         1 MOL     -0.722858
     49 H21        -0.7150    4.1620   -0.3210 hn        1 MOL      0.179750
     50 H22        -1.9830    6.6990   -1.3300 h1        1 MOL      0.107214
     51 H23        -1.0570    5.8770   -3.2610 hc        1 MOL      0.046941
     52 H24        -2.6540    5.2600   -3.2440 hc        1 MOL      0.046941
     53 N5         -3.4000    4.5930    0.3780 n         1 MOL     -0.024218
     54 C17        -4.6140    4.3960    1.1660 c3        1 MOL     -0.355297
     55 C18        -5.6190    3.4200    0.5660 c         1 MOL      0.597843
     56 O9         -6.8310    3.4590    0.9310 o         1 MOL     -0.579103
     57 H25        -2.5780    4.2520    0.8430 hn        1 MOL      0.110943
     58 H26        -5.0940    5.3740    1.2610 h1        1 MOL      0.163699
     59 H27        -4.3520    4.0680    2.1780 h1        1 MOL      0.163699
     60 N6         -5.2960    2.5460   -0.4490 n         1 MOL     -0.261432
     61 C19        -6.2050    1.6710   -1.2370 c3        1 MOL      0.035697
     62 C20        -6.6490    0.4340   -0.5210 c         1 MOL      0.317558
     63 O10        -7.5610   -0.2940   -1.0290 o         1 MOL     -0.522065
     64 C21        -5.5360    1.3860   -2.5840 c3        1 MOL     -0.159927
     65 C22        -4.8470   -0.0190   -2.6800 c         1 MOL      0.409955
     66 N7         -5.1960   -0.8740   -3.6070 n         1 MOL     -0.640439
     67 O11        -3.8140   -0.0930   -1.9730 o         1 MOL     -0.381624
     68 H28        -4.3200    2.3020   -0.3540 hn        1 MOL      0.039005
     69 H29        -7.1270    2.2140   -1.4120 h1        1 MOL      0.135215
     70 H30        -4.7750    2.1090   -2.8740 hc        1 MOL      0.074708
     71 H31        -6.3040    1.4630   -3.3520 hc        1 MOL      0.074708
     72 H32        -5.9980   -0.6260   -4.1670 hn        1 MOL      0.353154
     73 H33        -4.4920   -1.5590   -3.8420 hn        1 MOL      0.353154
     74 N8         -6.1680    0.0660    0.6950 n         1 MOL     -0.061714
     75 C23        -6.6520   -0.9790    1.6250 c3        1 MOL     -0.286978
     76 C24        -5.6970   -2.1960    1.6300 c         1 MOL      0.597030
     77 O12        -5.9190   -3.1660    2.3540 o         1 MOL     -0.568809
     78 H34        -5.4330    0.6310    1.0810 hn        1 MOL      0.247901
     79 H35        -7.6690   -1.3380    1.4640 h1        1 MOL      0.135879
     80 H36        -6.7030   -0.5410    2.6140 h1        1 MOL      0.135879
     81 N9         -4.5440   -2.1020    0.9810 n         1 MOL     -0.263994
     82 C25        -3.4380   -3.0650    0.9560 c3        1 MOL      0.005674
     83 C26        -2.0070   -2.5040    0.8970 c         1 MOL      0.592830
     84 O13        -1.7450   -1.4940    0.2570 o         1 MOL     -0.583383
     85 C27        -3.6850   -3.8240   -0.3050 c3        1 MOL      0.061645
     86 C28        -4.8740   -4.8200   -0.1580 ca        1 MOL      0.185492
     87 C29        -6.1430   -4.4920   -0.7370 ca        1 MOL     -0.379932
     88 C30        -4.7070   -6.0790    0.3530 ca        1 MOL     -0.379932
     89 C31        -7.2350   -5.3470   -0.7470 ca        1 MOL      0.029106
     90 C32        -5.8220   -6.9640    0.2960 ca        1 MOL      0.029106
     91 C33        -7.0200   -6.6790   -0.3740 ca        1 MOL      0.054001
     92 O14        -8.0460   -7.5830   -0.4690 oh        1 MOL     -0.414841
     93 H37        -4.4280   -1.1860    0.5580 hn        1 MOL      0.125292
     94 H38        -3.5300   -3.7070    1.8360 h1        1 MOL      0.063325
     95 H39        -2.8400   -4.4960   -0.4310 hc        1 MOL     -0.021051
     96 H40        -3.7820   -3.1840   -1.1760 hc        1 MOL     -0.021051
     97 H41        -6.3330   -3.4520   -0.9930 ha        1 MOL      0.159915
     98 H42        -3.6990   -6.3880    0.6330 ha        1 MOL      0.159915
     99 H43        -8.1630   -5.0100   -1.1770 ha        1 MOL      0.087650
    100 H44        -5.7780   -7.9650    0.6950 ha        1 MOL      0.087650
    101 H45        -7.7980   -8.4650   -0.1930 ho        1 MOL      0.335137
    102 N10        -1.0670   -3.1760    1.5160 n         1 MOL     -0.437558
    103 C34         0.4010   -2.8300    1.6030 c3        1 MOL     -0.194274
    104 C35         1.1920   -3.8510    0.7890 c         1 MOL      0.557470
    105 O15         1.1980   -5.0670    1.0670 o         1 MOL     -0.548858
    106 C36         0.8510   -2.7330    3.0900 c3        1 MOL      0.358864
    107 C37         0.0780   -1.6080    3.7420 c3        1 MOL      0.187480
    108 C38         2.3580   -2.5750    3.3060 c3        1 MOL     -0.619108
    109 C39        -0.2070   -1.8020    5.1710 c3        1 MOL     -0.269316
    110 H46        -1.4410   -3.8920    2.1240 hn        1 MOL      0.281817
    111 H47         0.5260   -1.9110    1.0270 h1        1 MOL      0.079490
    112 H48         0.5980   -3.6910    3.5360 hc        1 MOL     -0.025183
    113 H49        -0.8940   -1.5690    3.2530 hc        1 MOL     -0.024934
    114 H50         0.6350   -0.7080    3.4930 hc        1 MOL     -0.024934
    115 H51         2.8370   -3.4140    2.8040 hc        1 MOL      0.148986
    116 H52         2.6110   -1.6210    2.8230 hc        1 MOL      0.148986
    117 H53         2.5800   -2.5040    4.3650 hc        1 MOL      0.148986
    118 H54        -0.8090   -2.7030    5.2650 hc        1 MOL      0.047942
    119 H55         0.7300   -1.8380    5.7090 hc        1 MOL      0.047942
    120 H56        -0.7730   -0.9560    5.5690 hc        1 MOL      0.047942
    121 N11         1.7750   -3.3510   -0.3210 n         1 MOL     -0.376405
    122 C40         2.6960   -4.1150   -1.2050 c3        1 MOL     -0.022765
    123 C41         4.2110   -4.0160   -0.7620 c         1 MOL      0.496723
    124 O16         4.5150   -3.2740    0.2040 o         1 MOL     -0.428777
    125 C42         2.5220   -3.5930   -2.6740 c3        1 MOL     -0.117865
    126 O17         2.9520   -2.2680   -2.7650 oh        1 MOL     -0.506172
    127 H57         1.6550   -2.3640   -0.5020 hn        1 MOL      0.427097
    128 H58         2.4450   -5.1730   -1.2110 h1        1 MOL      0.061734
    129 H59         1.4420   -3.5810   -2.8490 h1        1 MOL      0.109716
    130 H60         3.1550   -4.3150   -3.2000 h1        1 MOL      0.109716
    131 H61         2.3710   -1.7510   -2.2020 ho        1 MOL      0.336585
    132 N12         5.1710   -4.7640   -1.3630 n         1 MOL     -0.448043
    133 C43         6.5860   -4.8630   -0.9430 c3        1 MOL      0.039582
    134 C44         7.3880   -3.5810   -1.0890 c         1 MOL      0.558483
    135 O18         8.1300   -3.1800   -0.2080 o         1 MOL     -0.523425
    136 C45         7.3290   -5.7920   -1.8550 c3        1 MOL     -0.238303
    137 H62         4.9470   -5.4150   -2.1010 hn        1 MOL      0.299979
    138 H63         6.5710   -5.2740    0.0640 h1        1 MOL      0.111187
    139 H64         8.2480   -6.0110   -1.3100 hc        1 MOL      0.074353
    140 H65         6.7790   -6.7070   -2.1200 hc        1 MOL      0.074353
    141 H66         7.5350   -5.2840   -2.7920 hc        1 MOL      0.074353
    142 N13         7.1130   -2.8010   -2.1410 n         1 MOL     -0.426061
    143 C46         7.6780   -1.4490   -2.2720 c3        1 MOL      0.060550
    144 C47         7.1600   -0.4780   -1.1240 c         1 MOL      0.332841
    145 O19         7.9360    0.3090   -0.6230 o         1 MOL     -0.502543
    146 C48         7.4410   -0.9120   -3.6930 c3        1 MOL     -0.336599
    147 H67         6.3880   -3.0360   -2.8070 hn        1 MOL      0.296927
    148 H68         8.7360   -1.5300   -2.0430 h1        1 MOL      0.114385
    149 H69         7.7730    0.1180   -3.8200 hc        1 MOL      0.099839
    150 H70         7.9950   -1.4860   -4.4320 hc        1 MOL      0.099839
    151 H71         6.3620   -0.9980   -3.8820 hc        1 MOL      0.099839
    152 N14         5.9430   -0.6280   -0.5590 n         1 MOL      0.061194
    153 C49         5.4540    0.1380    0.5480 c3        1 MOL     -0.481232
    154 C50         6.0290   -0.2900    1.8930 c         1 MOL      0.519797
    155 O20         6.2460    0.5420    2.8160 o         1 MOL     -0.544543
    156 C51         3.8640    0.0770    0.6400 c3        1 MOL      0.302245
    157 C52         3.2160    0.5830   -0.6710 c3        1 MOL     -0.038361
    158 C53         1.7110    0.4190   -0.5530 c         1 MOL      0.701559
    159 O21         1.1610   -0.6690   -0.8710 o         1 MOL     -0.765191
    160 O22         1.0470    1.4200   -0.2260 o         1 MOL     -0.765191
    161 H72         5.2940   -1.2600   -1.0060 hn        1 MOL      0.133225
    162 H73         5.7730    1.1690    0.4160 h1        1 MOL      0.172470
    163 H74         3.5010    0.5770    1.5290 hc        1 MOL     -0.029747
    164 H75         3.7610   -1.0000    0.7570 hc        1 MOL     -0.029747
    165 H76         3.5740   -0.0380   -1.4900 hc        1 MOL     -0.049663
    166 H77         3.4980    1.6290   -0.8390 hc        1 MOL     -0.049663
    167 N15         6.4410   -1.6050    2.0690 n         1 MOL     -0.063072
    168 C54         7.1960   -2.0520    3.2480 c3        1 MOL     -0.373676
    169 H78         6.9210   -3.0790    3.4880 h1        1 MOL      0.134292
    170 H79         8.2640   -2.0020    3.0370 h1        1 MOL      0.134292
    171 H80         6.9630   -1.4070    4.0960 h1        1 MOL      0.134292
    172 H81         6.2200   -2.2990    1.3650 hn        1 MOL      0.119999
    173 Ca1        -1.2060    0.4030   -1.5090 Ca        1 MOL      1.780811
    174 O23        -1.6730   -2.0350   -2.7750 oh        1 MOL     -0.855060
    175 H82        -2.2780   -1.9690   -3.5160 ho        1 MOL      0.408050
    176 H83        -1.4290   -2.9640   -2.7500 ho        1 MOL      0.408050
    177 O24         0.8850    1.4370   -3.2330 oh        1 MOL     -0.855060
    178 H84         1.7110    1.3660   -3.7170 ho        1 MOL      0.408050
    179 H85         0.5300    2.2910   -3.5010 ho        1 MOL      0.408050
    180 O25        -1.8940    0.4240   -4.4130 oh        1 MOL     -0.855060
    181 H86        -2.0830    1.3580   -4.3860 ho        1 MOL      0.408050
    182 H87        -2.1060    0.1650   -5.3090 ho        1 MOL      0.408050
@<TRIPOS>BOND
     1    1    2 1   
     2    1    4 1   
     3    1    5 1   
     4    1    6 1   
     5    2    3 2   
     6    2    7 1   
     7    7    8 1   
     8    7   15 1   
     9    8    9 1   
    10    8   11 1   
    11    8   16 1   
    12    9   10 2   
    13    9   19 1   
    14   11   12 1   
    15   11   17 1   
    16   11   18 1   
    17   12   13 1   
    18   12   14 1   
    19   19   20 1   
    20   19   28 1   
    21   20   21 1   
    22   20   23 1   
    23   20   29 1   
    24   21   22 2   
    25   21   41 1   
    26   23   24 1   
    27   23   30 1   
    28   23   31 1   
    29   24   25 1   
    30   24   32 1   
    31   24   33 1   
    32   25   26 1   
    33   25   34 1   
    34   25   35 1   
    35   26   27 1   
    36   26   36 1   
    37   26   37 1   
    38   27   38 1   
    39   27   39 1   
    40   27   40 1   
    41   41   42 1   
    42   41   49 1   
    43   42   43 1   
    44   42   45 1   
    45   42   50 1   
    46   43   44 2   
    47   43   53 1   
    48   45   46 1   
    49   45   51 1   
    50   45   52 1   
    51   46   47 1   
    52   46   48 1   
    53   53   54 1   
    54   53   57 1   
    55   54   55 1   
    56   54   58 1   
    57   54   59 1   
    58   55   56 2   
    59   55   60 1   
    60   60   61 1   
    61   60   68 1   
    62   61   62 1   
    63   61   64 1   
    64   61   69 1   
    65   62   63 2   
    66   62   74 1   
    67   64   65 1   
    68   64   70 1   
    69   64   71 1   
    70   65   66 1   
    71   65   67 2   
    72   66   72 1   
    73   66   73 1   
    74   74   75 1   
    75   74   78 1   
    76   75   76 1   
    77   75   79 1   
    78   75   80 1   
    79   76   77 2   
    80   76   81 1   
    81   81   82 1   
    82   81   93 1   
    83   82   83 1   
    84   82   85 1   
    85   82   94 1   
    86   83   84 2   
    87   83  102 1   
    88   85   86 1   
    89   85   95 1   
    90   85   96 1   
    91   86   87 ar  
    92   86   88 ar  
    93   87   89 ar  
    94   87   97 1   
    95   88   90 ar  
    96   88   98 1   
    97   89   91 ar  
    98   89   99 1   
    99   90   91 ar  
   100   90  100 1   
   101   91   92 1   
   102   92  101 1   
   103  102  103 1   
   104  102  110 1   
   105  103  104 1   
   106  103  106 1   
   107  103  111 1   
   108  104  105 2   
   109  104  121 1   
   110  106  107 1   
   111  106  108 1   
   112  106  112 1   
   113  107  109 1   
   114  107  113 1   
   115  107  114 1   
   116  108  115 1   
   117  108  116 1   
   118  108  117 1   
   119  109  118 1   
   120  109  119 1   
   121  109  120 1   
   122  121  122 1   
   123  121  127 1   
   124  122  123 1   
   125  122  125 1   
   126  122  128 1   
   127  123  124 2   
   128  123  132 1   
   129  125  126 1   
   130  125  129 1   
   131  125  130 1   
   132  126  131 1   
   133  132  133 1   
   134  132  137 1   
   135  133  134 1   
   136  133  136 1   
   137  133  138 1   
   138  134  135 2   
   139  134  142 1   
   140  136  139 1   
   141  136  140 1   
   142  136  141 1   
   143  142  143 1   
   144  142  147 1   
   145  143  144 1   
   146  143  146 1   
   147  143  148 1   
   148  144  145 2   
   149  144  152 1   
   150  146  149 1   
   151  146  150 1   
   152  146  151 1   
   153  152  153 1   
   154  152  161 1   
   155  153  154 1   
   156  153  156 1   
   157  153  162 1   
   158  154  155 2   
   159  154  167 1   
   160  156  157 1   
   161  156  163 1   
   162  156  164 1   
   163  157  158 1   
   164  157  165 1   
   165  157  166 1   
   166  158  159 1   
   167  158  160 1   
   168  167  168 1   
   169  167  172 1   
   170  168  169 1   
   171  168  170 1   
   172  168  171 1   
   173  174  175 1   
   174  174  176 1   
   175  177  178 1   
   176  177  179 1   
   177  180  181 1   
   178  180  182 1   
@<TRIPOS>SUBSTRUCTURE
     1 MOL         1 TEMP              0 ****  ****    0 ROOT
