@<TRIPOS>MOLECULE
MOL
  189   185     1     0     0
SMALL
resp


@<TRIPOS>ATOM
      1 C1         -0.3220   -2.3070    6.3420 c3        1 MOL     -0.509110
      2 C2          0.2840   -2.2640    4.9670 c         1 MOL      0.831571
      3 O1          0.3370   -1.1870    4.3760 o         1 MOL     -0.623682
      4 H1         -0.8590   -3.2470    6.4720 hc        1 MOL      0.129110
      5 H2          0.4670   -2.2340    7.0900 hc        1 MOL      0.129110
      6 H3         -1.0160   -1.4740    6.4600 hc        1 MOL      0.129110
      7 N1          0.8770   -3.4070    4.4940 n         1 MOL     -0.747689
      8 C3          1.7710   -3.3250    3.2770 c3        1 MOL      0.260098
      9 C4          1.6930   -4.5900    2.3830 c         1 MOL      0.462998
     10 O2          1.8810   -5.6780    2.9220 o         1 MOL     -0.583884
     11 C5          3.2030   -3.0600    3.6950 c3        1 MOL     -0.196509
     12 C6          4.1470   -2.8820    2.4340 c         1 MOL      0.603554
     13 O3          5.2170   -3.5560    2.4590 o         1 MOL     -0.629512
     14 O4          3.7270   -2.2560    1.3820 o         1 MOL     -0.629512
     15 H4          0.8740   -4.2720    5.0240 hn        1 MOL      0.353875
     16 H5          1.4520   -2.5280    2.6140 h1        1 MOL      0.066986
     17 H6          3.6450   -3.7270    4.4360 hc        1 MOL      0.035737
     18 H7          3.1840   -2.0460    4.0810 hc        1 MOL      0.035737
     19 N2          1.5710   -4.5150    1.0470 n         1 MOL      0.147182
     20 C7          1.4790   -5.6160    0.1070 c3        1 MOL     -0.340395
     21 C8          2.3770   -5.5780   -1.1010 c         1 MOL      0.543831
     22 O5          2.5380   -6.5180   -1.8510 o         1 MOL     -0.566449
     23 C9          0.0400   -5.8880   -0.3390 c3        1 MOL      0.344706
     24 C10        -0.5190   -4.8080   -1.2880 c3        1 MOL      0.004393
     25 C11        -0.9520   -6.2530    0.7560 c3        1 MOL     -0.281291
     26 C12        -2.0060   -4.8730   -1.7090 c3        1 MOL     -0.305612
     27 H8          1.3200   -3.6260    0.6520 hn        1 MOL     -0.172400
     28 H9          1.7370   -6.5330    0.6430 h1        1 MOL      0.115917
     29 H10        -0.0250   -6.7770   -0.9670 hc        1 MOL     -0.049806
     30 H11         0.1350   -4.8010   -2.1500 hc        1 MOL      0.028014
     31 H12        -0.3230   -3.8330   -0.8360 hc        1 MOL      0.028014
     32 H13        -1.8120   -6.7820    0.3360 hc        1 MOL      0.044268
     33 H14        -0.3780   -6.7030    1.5750 hc        1 MOL      0.044268
     34 H15        -1.2870   -5.3390    1.2460 hc        1 MOL      0.044268
     35 H16        -2.7460   -4.4450   -1.0350 hc        1 MOL      0.082790
     36 H17        -2.0490   -4.2220   -2.5780 hc        1 MOL      0.082790
     37 H18        -2.2960   -5.8760   -1.9980 hc        1 MOL      0.082790
     38 N3          2.9890   -4.3680   -1.3000 n         1 MOL     -0.233766
     39 C13         3.9280   -4.1940   -2.4440 c3        1 MOL     -0.031248
     40 C14         5.3470   -3.6440   -2.0480 c         1 MOL      0.414812
     41 O6          6.3000   -3.7300   -2.8280 o         1 MOL     -0.573062
     42 C15         3.2770   -3.2980   -3.5080 c3        1 MOL     -0.108813
     43 C16         2.7370   -1.8820   -3.0900 c         1 MOL      0.679855
     44 O7          3.0290   -1.3340   -1.9690 o         1 MOL     -0.684961
     45 O8          1.9880   -1.3190   -3.9480 o         1 MOL     -0.684961
     46 H19         2.9570   -3.6700   -0.5740 hn        1 MOL      0.127231
     47 H20         4.2050   -5.1210   -2.9500 h1        1 MOL      0.107809
     48 H21         2.5460   -3.9520   -3.9690 hc        1 MOL      0.038885
     49 H22         3.9890   -3.1100   -4.3200 hc        1 MOL      0.038885
     50 N4          5.6270   -3.2330   -0.8090 n         1 MOL     -0.136757
     51 C17         7.0110   -2.7730   -0.3840 c3        1 MOL     -0.288734
     52 C18         7.3960   -1.3600   -0.9280 c         1 MOL      0.480456
     53 O9          8.5250   -0.9770   -0.9010 o         1 MOL     -0.567135
     54 H23         4.9180   -3.2280   -0.0840 hn        1 MOL      0.123124
     55 H24         7.6110   -3.6170   -0.7300 h1        1 MOL      0.137686
     56 H25         6.9460   -2.7390    0.7050 h1        1 MOL      0.137686
     57 N5          6.4300   -0.6220   -1.5380 n         1 MOL      0.014903
     58 C19         6.7630    0.5450   -2.3490 c3        1 MOL     -0.021800
     59 C20         7.3300    1.6750   -1.4160 c         1 MOL      0.440536
     60 O10         8.1860    2.5220   -1.7840 o         1 MOL     -0.562278
     61 C21         5.6210    1.1390   -3.2110 c3        1 MOL     -0.220892
     62 C22         4.3760    1.6450   -2.4430 c         1 MOL      0.787119
     63 O11         4.1870    1.3360   -1.2040 o         1 MOL     -0.674281
     64 O12         3.5120    2.1930   -3.1050 o         1 MOL     -0.674281
     65 H26         5.5170   -1.0350   -1.6480 hn        1 MOL      0.062972
     66 H27         7.5500    0.1360   -2.9950 h1        1 MOL      0.061396
     67 H28         5.3470    0.3190   -3.8720 hc        1 MOL      0.070487
     68 H29         6.0340    1.9260   -3.8350 hc        1 MOL      0.070487
     69 N6          6.8010    1.7600   -0.1620 n         1 MOL     -0.240556
     70 C23         7.2510    2.8630    0.7400 c3        1 MOL     -0.065145
     71 C24         6.1360    3.8420    1.2100 c         1 MOL      0.454228
     72 O13         6.3980    4.8000    1.9250 o         1 MOL     -0.589503
     73 H30         5.9270    1.3080    0.0440 hn        1 MOL      0.110310
     74 H31         8.0030    3.5120    0.3040 h1        1 MOL      0.081769
     75 H32         7.6860    2.4920    1.6660 h1        1 MOL      0.081769
     76 N7          4.8630    3.7010    0.7280 n         1 MOL     -0.197690
     77 C25         3.6850    4.5140    0.8620 c3        1 MOL     -0.050926
     78 C26         2.4030    3.6740    0.9560 c         1 MOL      0.351015
     79 O14         2.3120    2.5240    0.5840 o         1 MOL     -0.357009
     80 C27         3.5860    5.3580   -0.4280 c3        1 MOL     -0.231930
     81 C28         4.7420    6.3770   -0.5570 c3        1 MOL     -0.189937
     82 C29         4.4110    7.5590   -1.5180 c         1 MOL      0.617941
     83 N8          5.2910    8.5350   -1.5750 n         1 MOL     -0.759212
     84 O15         3.3350    7.7050   -2.1010 o         1 MOL     -0.540539
     85 H33         4.7360    2.7950    0.3070 hn        1 MOL      0.132180
     86 H34         3.8250    5.1560    1.7420 h1        1 MOL      0.068185
     87 H35         2.6800    5.9480   -0.5330 hc        1 MOL      0.120993
     88 H36         3.6330    4.5620   -1.1660 hc        1 MOL      0.120993
     89 H37         5.6780    5.9060   -0.8540 hc        1 MOL      0.111359
     90 H38         4.9130    6.7690    0.4480 hc        1 MOL      0.111359
     91 H39         6.0950    8.5430   -0.9680 hn        1 MOL      0.338325
     92 H40         4.8120    9.3630   -1.8940 hn        1 MOL      0.338325
     93 N9          1.3000    4.2650    1.4830 n         1 MOL     -0.360588
     94 C30         0.0830    3.4600    1.6490 c3        1 MOL      0.033146
     95 C31        -0.9360    3.7680    0.5740 c         1 MOL      0.467880
     96 O16        -1.2630    4.9000    0.2550 o         1 MOL     -0.618458
     97 C32        -0.7130    3.7340    3.0020 c3        1 MOL      0.162388
     98 C33        -2.0930    2.9760    3.2250 c3        1 MOL     -0.160919
     99 C34         0.1560    3.4300    4.2040 c3        1 MOL     -0.160919
    100 H41         1.3030    5.2180    1.8370 hn        1 MOL      0.271170
    101 H42         0.3930    2.4250    1.7390 h1        1 MOL      0.103045
    102 H43        -0.9990    4.7850    3.0400 hc        1 MOL     -0.018553
    103 H44        -1.9620    1.8920    3.2080 hc        1 MOL      0.019696
    104 H45        -2.7010    3.3700    4.0450 hc        1 MOL      0.019696
    105 H46        -2.7050    3.1630    2.3500 hc        1 MOL      0.019696
    106 H47        -0.3760    3.5190    5.1530 hc        1 MOL      0.019696
    107 H48         0.5930    2.4270    4.1950 hc        1 MOL      0.019696
    108 H49         1.0140    4.0970    4.1300 hc        1 MOL      0.019696
    109 N10        -1.4180    2.7580   -0.1330 n         1 MOL     -0.009040
    110 C35        -2.4310    2.9220   -1.1540 c3        1 MOL      0.032381
    111 C36        -3.7160    2.3630   -0.5790 c         1 MOL      0.332954
    112 O17        -3.7350    1.8290    0.5380 o         1 MOL     -0.227143
    113 C37        -2.0420    2.1620   -2.4290 c3        1 MOL     -0.175483
    114 C38        -2.3380    0.6990   -2.4610 c         1 MOL      0.661521
    115 N11        -1.3990   -0.1790   -2.1480 n         1 MOL     -0.640368
    116 O18        -3.4250    0.3320   -2.8160 o         1 MOL     -0.558521
    117 H50        -0.9910    1.8820    0.1350 hn        1 MOL     -0.054308
    118 H51        -2.6930    3.9450   -1.4310 h1        1 MOL      0.097131
    119 H52        -0.9680    2.2800   -2.6110 hc        1 MOL      0.053933
    120 H53        -2.5690    2.5910   -3.2850 hc        1 MOL      0.053933
    121 H54        -0.4420    0.0610   -1.9240 hn        1 MOL      0.326742
    122 H55        -1.6700   -1.1440   -2.2920 hn        1 MOL      0.326742
    123 N12        -4.8410    2.4350   -1.2500 n         1 MOL     -0.575915
    124 C39        -6.1990    2.1050   -0.7540 c3        1 MOL      0.305094
    125 C40        -6.4460    0.6550   -0.2540 c         1 MOL      0.575232
    126 O19        -7.0330    0.5090    0.8050 o         1 MOL     -0.569701
    127 C41        -7.2240    2.4340   -1.8120 c3        1 MOL     -0.221076
    128 C42        -8.6950    2.2890   -1.3670 ca        1 MOL      0.236806
    129 C43        -9.2300    3.2730   -0.4800 ca        1 MOL     -0.383215
    130 C44        -9.4930    1.2450   -1.7950 ca        1 MOL     -0.383215
    131 C45       -10.5110    3.1240    0.0510 ca        1 MOL      0.005165
    132 C46       -10.8030    1.1620   -1.2420 ca        1 MOL      0.005165
    133 C47       -11.3120    2.0700   -0.3330 ca        1 MOL      0.112170
    134 O20       -12.5120    1.8320    0.3480 oh        1 MOL     -0.516408
    135 H56        -4.8900    3.1040   -2.0060 hn        1 MOL      0.321139
    136 H57        -6.4930    2.8360    0.0010 h1        1 MOL     -0.009134
    137 H58        -7.0550    1.8030   -2.6890 hc        1 MOL      0.060477
    138 H59        -7.0370    3.4200   -2.2430 hc        1 MOL      0.060477
    139 H60        -8.6120    4.0540   -0.0650 ha        1 MOL      0.186619
    140 H61        -9.1470    0.5690   -2.5540 ha        1 MOL      0.186619
    141 H62       -10.9330    3.8820    0.6920 ha        1 MOL      0.075066
    142 H63       -11.5630    0.5170   -1.6670 ha        1 MOL      0.075066
    143 H64       -13.0010    1.0510    0.0930 ho        1 MOL      0.383751
    144 N13        -5.8060   -0.3020   -0.9070 n         1 MOL     -0.290368
    145 C48        -6.0840   -1.7180   -0.5760 c3        1 MOL     -0.015155
    146 C49        -5.2650   -2.1830    0.6020 c         1 MOL      0.396763
    147 O21        -5.2610   -3.3920    0.9380 o         1 MOL     -0.543702
    148 C50        -5.8430   -2.5120   -1.8830 c3        1 MOL      0.100374
    149 C51        -6.7120   -1.9110   -3.0500 c3        1 MOL     -0.285905
    150 C52        -6.5500   -2.5930   -4.3970 c         1 MOL      0.736437
    151 O22        -6.0170   -2.0090   -5.3150 o         1 MOL     -0.742729
    152 O23        -6.8930   -3.7830   -4.4610 o         1 MOL     -0.742729
    153 H65        -5.4220   -0.1370   -1.8300 hn        1 MOL      0.212551
    154 H66        -7.1170   -1.9300   -0.2960 h1        1 MOL      0.081573
    155 H67        -6.0070   -3.5720   -1.7440 hc        1 MOL      0.021125
    156 H68        -4.8000   -2.3360   -2.1250 hc        1 MOL      0.021125
    157 H69        -6.4210   -0.8650   -3.1600 hc        1 MOL      0.033520
    158 H70        -7.7650   -1.8770   -2.7700 hc        1 MOL      0.033520
    159 N14        -4.5900   -1.2370    1.2700 n         1 MOL     -0.179323
    160 C53        -3.8030   -1.4020    2.4690 c3        1 MOL      0.040132
    161 C54        -4.2340   -0.3360    3.5440 c         1 MOL      0.306103
    162 O24        -4.2450   -0.5230    4.7990 o         1 MOL     -0.587442
    163 C55        -2.3600   -1.1000    2.1290 c3        1 MOL     -0.102039
    164 C56        -1.7400   -1.8080    0.9070 c3        1 MOL     -0.060750
    165 C57        -0.3520   -1.1700    0.6160 c         1 MOL      0.481497
    166 O25         0.6520   -1.9040    0.3230 o         1 MOL     -0.600667
    167 O26        -0.1460    0.0690    0.7100 o         1 MOL     -0.600667
    168 H71        -4.4700   -0.3410    0.8120 hn        1 MOL      0.040273
    169 H72        -3.7480   -2.4240    2.8440 h1        1 MOL      0.066780
    170 H73        -1.7790   -1.3990    3.0060 hc        1 MOL      0.087577
    171 H74        -2.2550   -0.0200    1.9570 hc        1 MOL      0.087577
    172 H75        -2.3640   -1.7830    0.0100 hc        1 MOL      0.071606
    173 H76        -1.5950   -2.8870    0.9700 hc        1 MOL      0.071606
    174 N15        -4.6940    0.7470    3.0770 n         1 MOL      0.192067
    175 C58        -5.2830    1.7970    3.8860 c3        1 MOL     -0.135451
    176 H77        -6.0560    1.3710    4.5270 h1        1 MOL      0.057877
    177 H78        -4.5120    2.2550    4.5040 h1        1 MOL      0.057877
    178 H79        -5.7260    2.5520    3.2370 h1        1 MOL      0.057877
    179 H80        -4.7260    0.8750    2.0760 hn        1 MOL     -0.110163
    180 Ca1         2.5600   -0.1210    0.2150 Ca        1 MOL      1.720166
    181 O27         2.3120    0.3910    2.9770 oh        1 MOL     -0.899079
    182 H81         2.7690    0.9540    3.6050 ho        1 MOL      0.431395
    183 H82         1.5200    0.1180    3.4280 ho        1 MOL      0.431395
    184 O28         1.4170    0.9220   -2.0250 oh        1 MOL     -0.899079
    185 H83         1.5560    0.1750   -2.5950 ho        1 MOL      0.431395
    186 H84         2.0900    1.5530   -2.2700 ho        1 MOL      0.431395
    187 O29         4.9250    0.5510    1.4960 oh        1 MOL     -0.899079
    188 H85         5.5910   -0.0730    1.7890 ho        1 MOL      0.431395
    189 H86         4.7790    1.1130    2.2590 ho        1 MOL      0.431395
@<TRIPOS>BOND
     1    1    2 1   
     2    1    4 1   
     3    1    5 1   
     4    1    6 1   
     5    2    3 2   
     6    2    7 1   
     7    7    8 1   
     8    7   15 1   
     9    8    9 1   
    10    8   11 1   
    11    8   16 1   
    12    9   10 2   
    13    9   19 1   
    14   11   12 1   
    15   11   17 1   
    16   11   18 1   
    17   12   13 1   
    18   12   14 1   
    19   19   20 1   
    20   19   27 1   
    21   20   21 1   
    22   20   23 1   
    23   20   28 1   
    24   21   22 2   
    25   21   38 1   
    26   23   24 1   
    27   23   25 1   
    28   23   29 1   
    29   24   26 1   
    30   24   30 1   
    31   24   31 1   
    32   25   32 1   
    33   25   33 1   
    34   25   34 1   
    35   26   35 1   
    36   26   36 1   
    37   26   37 1   
    38   38   39 1   
    39   38   46 1   
    40   39   40 1   
    41   39   42 1   
    42   39   47 1   
    43   40   41 2   
    44   40   50 1   
    45   42   43 1   
    46   42   48 1   
    47   42   49 1   
    48   43   44 1   
    49   43   45 1   
    50   50   51 1   
    51   50   54 1   
    52   51   52 1   
    53   51   55 1   
    54   51   56 1   
    55   52   53 2   
    56   52   57 1   
    57   57   58 1   
    58   57   65 1   
    59   58   59 1   
    60   58   61 1   
    61   58   66 1   
    62   59   60 2   
    63   59   69 1   
    64   61   62 1   
    65   61   67 1   
    66   61   68 1   
    67   62   63 1   
    68   62   64 1   
    69   69   70 1   
    70   69   73 1   
    71   70   71 1   
    72   70   74 1   
    73   70   75 1   
    74   71   72 2   
    75   71   76 1   
    76   76   77 1   
    77   76   85 1   
    78   77   78 1   
    79   77   80 1   
    80   77   86 1   
    81   78   79 2   
    82   78   93 1   
    83   80   81 1   
    84   80   87 1   
    85   80   88 1   
    86   81   82 1   
    87   81   89 1   
    88   81   90 1   
    89   82   83 1   
    90   82   84 2   
    91   83   91 1   
    92   83   92 1   
    93   93   94 1   
    94   93  100 1   
    95   94   95 1   
    96   94   97 1   
    97   94  101 1   
    98   95   96 2   
    99   95  109 1   
   100   97   98 1   
   101   97   99 1   
   102   97  102 1   
   103   98  103 1   
   104   98  104 1   
   105   98  105 1   
   106   99  106 1   
   107   99  107 1   
   108   99  108 1   
   109  109  110 1   
   110  109  117 1   
   111  110  111 1   
   112  110  113 1   
   113  110  118 1   
   114  111  112 2   
   115  111  123 1   
   116  113  114 1   
   117  113  119 1   
   118  113  120 1   
   119  114  115 1   
   120  114  116 2   
   121  115  121 1   
   122  115  122 1   
   123  123  124 1   
   124  123  135 1   
   125  124  125 1   
   126  124  127 1   
   127  124  136 1   
   128  125  126 2   
   129  125  144 1   
   130  127  128 1   
   131  127  137 1   
   132  127  138 1   
   133  128  129 ar  
   134  128  130 ar  
   135  129  131 ar  
   136  129  139 1   
   137  130  132 ar  
   138  130  140 1   
   139  131  133 ar  
   140  131  141 1   
   141  132  133 ar  
   142  132  142 1   
   143  133  134 1   
   144  134  143 1   
   145  144  145 1   
   146  144  153 1   
   147  145  146 1   
   148  145  148 1   
   149  145  154 1   
   150  146  147 2   
   151  146  159 1   
   152  148  149 1   
   153  148  155 1   
   154  148  156 1   
   155  149  150 1   
   156  149  157 1   
   157  149  158 1   
   158  150  151 1   
   159  150  152 1   
   160  159  160 1   
   161  159  168 1   
   162  160  161 1   
   163  160  163 1   
   164  160  169 1   
   165  161  162 2   
   166  161  174 1   
   167  163  164 1   
   168  163  170 1   
   169  163  171 1   
   170  164  165 1   
   171  164  172 1   
   172  164  173 1   
   173  165  166 1   
   174  165  167 1   
   175  174  175 1   
   176  174  179 1   
   177  175  176 1   
   178  175  177 1   
   179  175  178 1   
   180  181  182 1   
   181  181  183 1   
   182  184  185 1   
   183  184  186 1   
   184  187  188 1   
   185  187  189 1   
@<TRIPOS>SUBSTRUCTURE
     1 MOL         1 TEMP              0 ****  ****    0 ROOT
