@<TRIPOS>MOLECULE
MOL
  186   183     1     0     0
SMALL
resp


@<TRIPOS>ATOM
      1 C1          0.4750   -1.5400    6.2550 c3        1 MOL     -0.336581
      2 C2          0.6340   -1.5960    4.7930 c         1 MOL      0.802769
      3 O1         -0.2030   -2.2690    4.1230 o         1 MOL     -0.630954
      4 H1          0.0120   -0.5940    6.5340 hc        1 MOL      0.073057
      5 H2         -0.1560   -2.3650    6.5850 hc        1 MOL      0.073057
      6 H3          1.4530   -1.6180    6.7310 hc        1 MOL      0.073057
      7 N1          1.7580   -1.1320    4.3470 n         1 MOL     -0.549951
      8 C3          2.3170   -1.3760    3.0400 c3        1 MOL      0.225782
      9 C4          2.7090   -2.7750    2.7920 c         1 MOL      0.445518
     10 O2          3.3600   -3.4220    3.6680 o         1 MOL     -0.583942
     11 C5          3.6250   -0.4930    3.0080 c3        1 MOL      0.019488
     12 C6          4.5170   -0.4180    1.7700 c         1 MOL      0.588292
     13 O3          5.7080   -0.0830    1.8500 o         1 MOL     -0.641846
     14 O4          3.9330   -0.7090    0.7010 o         1 MOL     -0.641846
     15 H4          2.1710   -0.4620    4.9850 hn        1 MOL      0.279085
     16 H5          1.6640   -1.0280    2.2350 h1        1 MOL     -0.085535
     17 H6          4.2700   -0.7060    3.8620 hc        1 MOL     -0.030601
     18 H7          3.2930    0.5050    3.2820 hc        1 MOL     -0.030601
     19 N2          2.2630   -3.3560    1.6390 n         1 MOL     -0.058883
     20 C7          2.6410   -4.7520    1.4460 c3        1 MOL     -0.194667
     21 C8          3.4810   -5.0380    0.2460 c         1 MOL      0.389342
     22 O5          3.6520   -6.2070   -0.1370 o         1 MOL     -0.568279
     23 C9          1.3950   -5.7340    1.5600 c3        1 MOL      0.378426
     24 C10         0.5770   -5.6500    0.2610 c3        1 MOL     -0.231817
     25 C11         0.5570   -5.5280    2.8300 c3        1 MOL     -0.267277
     26 C12        -0.6850   -6.5200    0.2030 c3        1 MOL     -0.360754
     27 H8          1.7120   -2.9110    0.9160 hn        1 MOL      0.163585
     28 H9          3.2830   -4.9940    2.2940 h1        1 MOL      0.102932
     29 H10         1.8030   -6.7350    1.6920 hc        1 MOL     -0.077290
     30 H11         1.2140   -5.9980   -0.5450 hc        1 MOL      0.143509
     31 H12         0.2880   -4.6200    0.0640 hc        1 MOL      0.143509
     32 H13         0.1150   -4.5440    2.6490 hc        1 MOL      0.050787
     33 H14        -0.2200   -6.2970    2.8300 hc        1 MOL      0.050787
     34 H15         1.1890   -5.5520    3.7240 hc        1 MOL      0.050787
     35 H16        -0.3150   -7.5460    0.3160 hc        1 MOL      0.095619
     36 H17        -1.3800   -6.3000    1.0140 hc        1 MOL      0.095619
     37 H18        -1.0930   -6.4200   -0.8040 hc        1 MOL      0.095619
     38 N3          3.9820   -3.9960   -0.4230 n         1 MOL     -0.259083
     39 C13         5.0540   -4.1270   -1.4830 c3        1 MOL      0.099816
     40 C14         6.3000   -3.2680   -1.3500 c         1 MOL      0.442752
     41 O6          7.1010   -3.0130   -2.2650 o         1 MOL     -0.527049
     42 C15         4.3820   -4.0780   -2.9120 c3        1 MOL     -0.315997
     43 C16         3.5570   -2.7630   -3.1590 c         1 MOL      0.741945
     44 O7          3.5010   -1.8610   -2.3080 o         1 MOL     -0.698191
     45 O8          2.8120   -2.7060   -4.1770 o         1 MOL     -0.698191
     46 H19         3.8230   -3.0700   -0.0490 hn        1 MOL      0.139874
     47 H20         5.4200   -5.1320   -1.2900 h1        1 MOL      0.063104
     48 H21         3.6650   -4.8860   -2.9950 hc        1 MOL      0.077952
     49 H22         5.1380   -4.2610   -3.6760 hc        1 MOL      0.077952
     50 N4          6.4820   -2.7500   -0.1830 n         1 MOL     -0.397546
     51 C17         7.7100   -2.0970    0.2100 c3        1 MOL     -0.066556
     52 C18         8.0060   -0.7500   -0.5780 c         1 MOL      0.483140
     53 O9          9.1450   -0.3810   -0.7610 o         1 MOL     -0.595931
     54 H23         5.8860   -2.8650    0.6160 hn        1 MOL      0.293110
     55 H24         8.6230   -2.6640    0.0420 h1        1 MOL      0.072995
     56 H25         7.7450   -1.9770    1.2870 h1        1 MOL      0.072995
     57 N5          6.9730   -0.1170   -1.1790 n         1 MOL      0.002102
     58 C19         7.2730    1.1990   -1.8560 c3        1 MOL     -0.286255
     59 C20         7.1430    2.4080   -0.9530 c         1 MOL      0.457894
     60 O10         7.2210    3.6240   -1.3520 o         1 MOL     -0.566571
     61 C21         6.3070    1.3580   -3.0380 c3        1 MOL     -0.081851
     62 C22         4.8550    1.3070   -2.6350 c         1 MOL      0.739211
     63 O11         4.4910    1.6590   -1.4960 o         1 MOL     -0.739433
     64 O12         3.9520    0.8660   -3.3250 o         1 MOL     -0.739433
     65 H26         6.0070   -0.2770   -0.9330 hn        1 MOL      0.100428
     66 H27         8.1960    1.1050   -2.4050 h1        1 MOL      0.181422
     67 H28         6.5340    0.5660   -3.7450 hc        1 MOL      0.035506
     68 H29         6.3320    2.2260   -3.7080 hc        1 MOL      0.035506
     69 N6          7.0140    2.1170    0.3750 n         1 MOL     -0.190081
     70 C23         6.9670    3.1040    1.4900 c3        1 MOL     -0.162012
     71 C24         5.5960    3.8940    1.5980 c         1 MOL      0.574844
     72 O13         5.6410    4.8700    2.3470 o         1 MOL     -0.587890
     73 H30         6.9030    1.1280    0.5600 hn        1 MOL      0.190949
     74 H31         7.7200    3.8830    1.3570 h1        1 MOL      0.093127
     75 H32         7.0980    2.6090    2.4510 h1        1 MOL      0.093127
     76 N7          4.4660    3.5130    0.9650 n         1 MOL     -0.430080
     77 C25         3.1800    4.2080    1.0460 c3        1 MOL      0.071833
     78 C26         2.0100    3.1910    1.0530 c         1 MOL      0.470316
     79 O14         2.1020    2.1330    0.4320 o         1 MOL     -0.637696
     80 C27         2.9940    5.1460   -0.1630 c3        1 MOL      0.083896
     81 C28         4.0320    6.2600   -0.1090 c3        1 MOL     -0.327349
     82 C29         3.5450    7.4490   -1.0120 c         1 MOL      0.731509
     83 N8          3.3550    7.4090   -2.3330 n         1 MOL     -0.813012
     84 O15         3.2670    8.4970   -0.5830 o         1 MOL     -0.578580
     85 H33         4.5270    2.6810    0.3970 hn        1 MOL      0.314823
     86 H34         3.0430    4.8160    1.9420 h1        1 MOL      0.044245
     87 H35         1.9820    5.5500   -0.1080 hc        1 MOL     -0.000412
     88 H36         3.0400    4.5820   -1.0950 hc        1 MOL     -0.000412
     89 H37         4.9880    5.8770   -0.4890 hc        1 MOL      0.117697
     90 H38         3.9960    6.6730    0.8890 hc        1 MOL      0.117697
     91 H39         3.3010    6.5340   -2.8400 hn        1 MOL      0.337844
     92 H40         2.7130    8.1330   -2.6280 hn        1 MOL      0.337844
     93 N9          0.8470    3.5530    1.6070 n         1 MOL     -0.325913
     94 C30        -0.4940    2.7940    1.7060 c3        1 MOL      0.246649
     95 C31        -1.4350    3.4080    0.6640 c         1 MOL      0.395506
     96 O16        -1.6630    4.6060    0.6120 o         1 MOL     -0.563292
     97 C32        -1.0370    2.9300    3.1910 c3        1 MOL      0.119094
     98 C33        -2.4540    2.4360    3.4590 c3        1 MOL     -0.254744
     99 C34        -0.2660    2.1450    4.1930 c3        1 MOL     -0.254744
    100 H41         0.8490    4.4780    2.0040 hn        1 MOL      0.217587
    101 H42        -0.4350    1.7470    1.4140 h1        1 MOL      0.071715
    102 H43        -1.0560    4.0140    3.3330 hc        1 MOL     -0.011024
    103 H44        -2.5790    1.3780    3.2430 hc        1 MOL      0.050490
    104 H45        -2.7740    2.7000    4.4630 hc        1 MOL      0.050490
    105 H46        -3.1220    2.8760    2.7160 hc        1 MOL      0.050490
    106 H47        -0.2680    1.0660    3.9900 hc        1 MOL      0.050490
    107 H48         0.7430    2.5410    4.1570 hc        1 MOL      0.050490
    108 H49        -0.7100    2.1280    5.1890 hc        1 MOL      0.050490
    109 N10        -2.0160    2.5820   -0.2420 n         1 MOL     -0.271204
    110 C35        -3.1200    2.8110   -1.1160 c3        1 MOL      0.260891
    111 C36        -4.4530    2.1050   -0.6200 c         1 MOL      0.462623
    112 O17        -4.4770    1.4490    0.4130 o         1 MOL     -0.388639
    113 C37        -2.7150    2.3170   -2.5650 c3        1 MOL     -0.534978
    114 C38        -3.0970    0.9390   -2.8360 c         1 MOL      0.799187
    115 N11        -2.2310    0.0360   -2.5520 n         1 MOL     -0.878252
    116 O18        -4.1910    0.6130   -3.2110 o         1 MOL     -0.657550
    117 H50        -1.7220    1.6220   -0.1560 hn        1 MOL      0.129453
    118 H51        -3.3970    3.8560   -1.1480 h1        1 MOL      0.036317
    119 H52        -1.6400    2.4100   -2.7030 hc        1 MOL      0.148546
    120 H53        -3.1930    2.9440   -3.3140 hc        1 MOL      0.148546
    121 H54        -1.3430    0.2020   -2.0950 hn        1 MOL      0.429322
    122 H55        -2.5260   -0.9280   -2.6250 hn        1 MOL      0.429322
    123 N12        -5.6020    2.3420   -1.2430 n         1 MOL     -0.697822
    124 C39        -6.9140    1.8330   -0.7350 c3        1 MOL      0.418879
    125 C40        -7.0430    0.2730   -0.5170 c         1 MOL      0.614039
    126 O19        -7.5100   -0.1960    0.4880 o         1 MOL     -0.527456
    127 C41        -8.0150    2.3910   -1.6280 c3        1 MOL     -0.269913
    128 C42        -9.4230    2.1840   -1.1450 ca        1 MOL      0.155447
    129 C43        -9.7730    2.7880    0.0430 ca        1 MOL     -0.247257
    130 C44       -10.3290    1.3640   -1.7760 ca        1 MOL     -0.247257
    131 C45       -11.0340    2.5440    0.6620 ca        1 MOL     -0.206788
    132 C46       -11.5580    1.1030   -1.1240 ca        1 MOL     -0.206788
    133 C47       -11.9660    1.6910    0.0740 ca        1 MOL      0.296276
    134 O20       -13.1260    1.4550    0.7470 oh        1 MOL     -0.472414
    135 H56        -5.6980    2.8990   -2.0790 hn        1 MOL      0.332552
    136 H57        -7.1410    2.1510    0.2840 h1        1 MOL     -0.030136
    137 H58        -7.9050    1.8850   -2.5830 hc        1 MOL      0.066096
    138 H59        -7.8140    3.4560   -1.7180 hc        1 MOL      0.066096
    139 H60        -8.9720    3.3210    0.5180 ha        1 MOL      0.156032
    140 H61       -10.0100    0.8580   -2.6740 ha        1 MOL      0.156032
    141 H62       -11.1640    2.9810    1.6350 ha        1 MOL      0.131354
    142 H63       -12.2150    0.3490   -1.5270 ha        1 MOL      0.131354
    143 H64       -13.8030    1.1550    0.1360 ho        1 MOL      0.343679
    144 N13        -6.3960   -0.4630   -1.4540 n         1 MOL     -0.698105
    145 C48        -6.2270   -1.9390   -1.3210 c3        1 MOL      0.328627
    146 C49        -5.4670   -2.2880    0.0170 c         1 MOL      0.091764
    147 O21        -5.8160   -3.2320    0.6970 o         1 MOL     -0.474274
    148 C50        -5.5050   -2.5160   -2.5720 c3        1 MOL     -0.037596
    149 C51        -5.3230   -4.0680   -2.5560 c3        1 MOL     -0.345188
    150 C52        -4.5620   -4.5230   -3.8090 c         1 MOL      0.802259
    151 O22        -5.0630   -4.3530   -4.9510 o         1 MOL     -0.755429
    152 O23        -3.4710   -5.0580   -3.6600 o         1 MOL     -0.755429
    153 H65        -6.0620    0.0910   -2.2310 hn        1 MOL      0.345695
    154 H66        -7.2170   -2.3770   -1.3070 h1        1 MOL      0.036471
    155 H67        -4.5150   -2.0760   -2.5180 hc        1 MOL      0.017415
    156 H68        -6.0980   -2.1910   -3.4330 hc        1 MOL      0.017415
    157 H69        -6.3050   -4.5220   -2.4510 hc        1 MOL      0.061770
    158 H70        -4.8590   -4.2800   -1.5880 hc        1 MOL      0.061770
    159 N14        -4.4720   -1.5220    0.4590 n         1 MOL      0.011178
    160 C53        -3.6940   -1.7510    1.6580 c3        1 MOL      0.054494
    161 C54        -4.5120   -1.3270    2.8940 c         1 MOL      0.389319
    162 O24        -4.4490   -2.0800    3.9140 o         1 MOL     -0.581503
    163 C55        -2.3420   -1.0600    1.6460 c3        1 MOL      0.126517
    164 C56        -1.3880   -1.8190    0.6870 c3        1 MOL     -0.240716
    165 C57        -0.2350   -0.9760    0.0180 c         1 MOL      0.733728
    166 O25         0.8330   -1.5750   -0.1550 o         1 MOL     -0.723269
    167 O26        -0.4640    0.1630   -0.4050 o         1 MOL     -0.723269
    168 H71        -4.2810   -0.6850   -0.0770 hn        1 MOL      0.194633
    169 H72        -3.5020   -2.8250    1.6960 h1        1 MOL      0.070661
    170 H73        -1.9590   -1.1380    2.6640 hc        1 MOL     -0.003738
    171 H74        -2.5070   -0.0550    1.2660 hc        1 MOL     -0.003738
    172 H75        -1.9680   -2.2550   -0.1350 hc        1 MOL      0.066028
    173 H76        -0.9500   -2.6270    1.2750 hc        1 MOL      0.066028
    174 N15        -5.2710   -0.2930    2.7890 n         1 MOL     -0.026292
    175 C58        -6.0580    0.2900    3.9660 c3        1 MOL     -0.297070
    176 H77        -5.5340    1.1630    4.3570 h1        1 MOL      0.107402
    177 H78        -7.0510    0.5850    3.6300 h1        1 MOL      0.107402
    178 H79        -6.1480   -0.4600    4.7520 h1        1 MOL      0.107402
    179 H80        -5.3390    0.2190    1.9210 hn        1 MOL      0.069402
    180 Ca1         2.3950    0.2060   -1.1990 Ca        1 MOL      1.772846
    181 O27         1.7420    2.5420   -2.6340 oh        1 MOL     -0.849009
    182 H81         2.5380    3.0760   -2.5890 ho        1 MOL      0.414098
    183 H82         1.5280    2.5130   -3.5670 ho        1 MOL      0.414098
    184 O28         0.8280   -0.1790   -3.5200 oh        1 MOL     -0.849009
    185 H83         0.4240    0.3840   -4.1730 ho        1 MOL      0.414098
    186 H84         0.6050   -1.0680   -3.7990 ho        1 MOL      0.414098
@<TRIPOS>BOND
     1    1    2 1   
     2    1    4 1   
     3    1    5 1   
     4    1    6 1   
     5    2    3 2   
     6    2    7 1   
     7    7    8 1   
     8    7   15 1   
     9    8    9 1   
    10    8   11 1   
    11    8   16 1   
    12    9   10 2   
    13    9   19 1   
    14   11   12 1   
    15   11   17 1   
    16   11   18 1   
    17   12   13 1   
    18   12   14 1   
    19   19   20 1   
    20   19   27 1   
    21   20   21 1   
    22   20   23 1   
    23   20   28 1   
    24   21   22 2   
    25   21   38 1   
    26   23   24 1   
    27   23   25 1   
    28   23   29 1   
    29   24   26 1   
    30   24   30 1   
    31   24   31 1   
    32   25   32 1   
    33   25   33 1   
    34   25   34 1   
    35   26   35 1   
    36   26   36 1   
    37   26   37 1   
    38   38   39 1   
    39   38   46 1   
    40   39   40 1   
    41   39   42 1   
    42   39   47 1   
    43   40   41 2   
    44   40   50 1   
    45   42   43 1   
    46   42   48 1   
    47   42   49 1   
    48   43   44 1   
    49   43   45 1   
    50   50   51 1   
    51   50   54 1   
    52   51   52 1   
    53   51   55 1   
    54   51   56 1   
    55   52   53 2   
    56   52   57 1   
    57   57   58 1   
    58   57   65 1   
    59   58   59 1   
    60   58   61 1   
    61   58   66 1   
    62   59   60 2   
    63   59   69 1   
    64   61   62 1   
    65   61   67 1   
    66   61   68 1   
    67   62   63 1   
    68   62   64 1   
    69   69   70 1   
    70   69   73 1   
    71   70   71 1   
    72   70   74 1   
    73   70   75 1   
    74   71   72 2   
    75   71   76 1   
    76   76   77 1   
    77   76   85 1   
    78   77   78 1   
    79   77   80 1   
    80   77   86 1   
    81   78   79 2   
    82   78   93 1   
    83   80   81 1   
    84   80   87 1   
    85   80   88 1   
    86   81   82 1   
    87   81   89 1   
    88   81   90 1   
    89   82   83 1   
    90   82   84 2   
    91   83   91 1   
    92   83   92 1   
    93   93   94 1   
    94   93  100 1   
    95   94   95 1   
    96   94   97 1   
    97   94  101 1   
    98   95   96 2   
    99   95  109 1   
   100   97   98 1   
   101   97   99 1   
   102   97  102 1   
   103   98  103 1   
   104   98  104 1   
   105   98  105 1   
   106   99  106 1   
   107   99  107 1   
   108   99  108 1   
   109  109  110 1   
   110  109  117 1   
   111  110  111 1   
   112  110  113 1   
   113  110  118 1   
   114  111  112 2   
   115  111  123 1   
   116  113  114 1   
   117  113  119 1   
   118  113  120 1   
   119  114  115 1   
   120  114  116 2   
   121  115  121 1   
   122  115  122 1   
   123  123  124 1   
   124  123  135 1   
   125  124  125 1   
   126  124  127 1   
   127  124  136 1   
   128  125  126 2   
   129  125  144 1   
   130  127  128 1   
   131  127  137 1   
   132  127  138 1   
   133  128  129 ar  
   134  128  130 ar  
   135  129  131 ar  
   136  129  139 1   
   137  130  132 ar  
   138  130  140 1   
   139  131  133 ar  
   140  131  141 1   
   141  132  133 ar  
   142  132  142 1   
   143  133  134 1   
   144  134  143 1   
   145  144  145 1   
   146  144  153 1   
   147  145  146 1   
   148  145  148 1   
   149  145  154 1   
   150  146  147 2   
   151  146  159 1   
   152  148  149 1   
   153  148  155 1   
   154  148  156 1   
   155  149  150 1   
   156  149  157 1   
   157  149  158 1   
   158  150  151 1   
   159  150  152 1   
   160  159  160 1   
   161  159  168 1   
   162  160  161 1   
   163  160  163 1   
   164  160  169 1   
   165  161  162 2   
   166  161  174 1   
   167  163  164 1   
   168  163  170 1   
   169  163  171 1   
   170  164  165 1   
   171  164  172 1   
   172  164  173 1   
   173  165  166 1   
   174  165  167 1   
   175  174  175 1   
   176  174  179 1   
   177  175  176 1   
   178  175  177 1   
   179  175  178 1   
   180  181  182 1   
   181  181  183 1   
   182  184  185 1   
   183  184  186 1   
@<TRIPOS>SUBSTRUCTURE
     1 MOL         1 TEMP              0 ****  ****    0 ROOT
