@<TRIPOS>MOLECULE
MOL
  189   185     1     0     0
SMALL
resp


@<TRIPOS>ATOM
      1 C1          0.2510    3.5280   -4.7640 c3        1 MOL     -0.462455
      2 C2          0.8370    3.1620   -3.4260 c         1 MOL      0.780080
      3 O1          0.2640    3.4120   -2.3820 o         1 MOL     -0.650953
      4 H1         -0.7580    3.9140   -4.6240 hc        1 MOL      0.120834
      5 H2          0.8700    4.2910   -5.2360 hc        1 MOL      0.120834
      6 H3          0.2180    2.6430   -5.4000 hc        1 MOL      0.120834
      7 N1          2.0130    2.5310   -3.3330 n         1 MOL     -0.633256
      8 C3          2.5660    1.9220   -2.0730 c3        1 MOL      0.345019
      9 C4          3.3170    2.9710   -1.2500 c         1 MOL      0.293195
     10 O2          4.5520    3.1030   -1.2370 o         1 MOL     -0.445547
     11 C5          3.4650    0.7610   -2.4970 c3        1 MOL     -0.226367
     12 C6          4.2280    0.0960   -1.3590 c         1 MOL      0.646566
     13 O3          3.7670   -0.0120   -0.2270 o         1 MOL     -0.650082
     14 O4          5.3790   -0.3300   -1.6140 o         1 MOL     -0.650082
     15 H4          2.5100    2.3340   -4.1930 hn        1 MOL      0.300511
     16 H5          1.6930    1.5800   -1.5140 h1        1 MOL      0.009299
     17 H6          4.1380    1.0910   -3.2870 hc        1 MOL      0.050657
     18 H7          2.7990   -0.0110   -2.8870 hc        1 MOL      0.050657
     19 N2          2.5210    3.8060   -0.5880 n         1 MOL     -0.213615
     20 C7          2.9990    5.0420    0.0270 c3        1 MOL     -0.014248
     21 C8          3.9290    4.7130    1.2130 c         1 MOL      0.413686
     22 O5          4.7230    5.5720    1.5200 o         1 MOL     -0.550427
     23 C9          1.8800    5.9780    0.5100 c3        1 MOL      0.004003
     24 C10         0.7500    6.3230   -0.4190 c3        1 MOL      0.078506
     25 C11         1.3940    7.0040   -1.6490 c3        1 MOL     -0.128789
     26 C12         0.1350    7.6310   -2.1920 c3        1 MOL      0.107789
     27 N3          0.4590    8.3570   -3.4340 n4        1 MOL     -0.359400
     28 H8          1.5190    3.8000   -0.7350 hn        1 MOL      0.272075
     29 H9          3.5990    5.5640   -0.7100 h1        1 MOL      0.054379
     30 H10         2.3450    6.9270    0.7760 hc        1 MOL      0.015035
     31 H11         1.4310    5.5340    1.3930 hc        1 MOL      0.015035
     32 H12         0.0260    6.9930    0.0450 hc        1 MOL      0.014590
     33 H13         0.2280    5.4030   -0.7080 hc        1 MOL      0.014590
     34 H14         1.8250    6.3130   -2.3790 hc        1 MOL      0.053473
     35 H15         2.0730    7.7760   -1.3040 hc        1 MOL      0.053473
     36 H16        -0.3150    8.3400   -1.4990 hx        1 MOL      0.069114
     37 H17        -0.6200    6.9250   -2.5330 hx        1 MOL      0.069114
     38 H18         1.3010    8.8940   -3.2780 hn        1 MOL      0.315058
     39 H19         0.6160    7.6470   -4.1310 hn        1 MOL      0.315058
     40 H20        -0.3040    8.9260   -3.7710 hn        1 MOL      0.315058
     41 N4          3.7970    3.6230    1.9700 n         1 MOL     -0.237350
     42 C13         4.7560    3.3500    3.0260 c3        1 MOL      0.051974
     43 C14         5.9630    2.4810    2.6070 c         1 MOL      0.339503
     44 O6          6.8760    2.1860    3.4250 o         1 MOL     -0.509054
     45 C15         4.0240    2.7460    4.2000 c3        1 MOL     -0.287595
     46 C16         3.0450    1.6700    3.7640 c         1 MOL      0.855863
     47 O7          3.2990    0.8560    2.8200 o         1 MOL     -0.715326
     48 O8          1.9960    1.5450    4.4340 o         1 MOL     -0.715326
     49 H21         3.0890    2.9360    1.7450 hn        1 MOL      0.173712
     50 H22         5.2810    4.2550    3.3390 h1        1 MOL      0.102981
     51 H23         3.5230    3.5060    4.8080 hc        1 MOL      0.072078
     52 H24         4.7380    2.2720    4.8650 hc        1 MOL      0.072078
     53 N5          6.0290    2.1190    1.3590 n         1 MOL     -0.071256
     54 C17         7.0870    1.1970    0.8870 c3        1 MOL     -0.065583
     55 C18         7.3260   -0.1410    1.5650 c         1 MOL      0.521062
     56 O9          8.3040   -0.3260    2.2820 o         1 MOL     -0.552440
     57 H25         5.2940    2.3670    0.7110 hn        1 MOL      0.131839
     58 H26         8.0090    1.7560    0.7440 h1        1 MOL      0.043931
     59 H27         6.8270    0.8950   -0.1240 h1        1 MOL      0.043931
     60 N6          6.4600   -1.1140    1.3060 n         1 MOL     -0.242565
     61 C19         6.7230   -2.5640    1.6080 c3        1 MOL      0.009320
     62 C20         6.5280   -3.5460    0.4310 c         1 MOL      0.404648
     63 O10         6.4970   -4.7240    0.6690 o         1 MOL     -0.511722
     64 C21         5.8170   -3.0350    2.7880 c3        1 MOL     -0.179226
     65 C22         4.3480   -2.6350    2.5480 c         1 MOL      0.756207
     66 O11         3.5460   -2.2530    3.4180 o         1 MOL     -0.709966
     67 O12         3.8900   -2.6810    1.3630 o         1 MOL     -0.709966
     68 H28         5.6600   -0.8470    0.7500 hn        1 MOL      0.135429
     69 H29         7.7380   -2.7150    1.9580 h1        1 MOL      0.084881
     70 H30         6.1300   -2.5220    3.6980 hc        1 MOL      0.062526
     71 H31         5.9010   -4.1090    2.9130 hc        1 MOL      0.062526
     72 N7          6.2640   -2.9890   -0.7230 n         1 MOL     -0.202880
     73 C23         6.1800   -3.6820   -1.9930 c3        1 MOL     -0.169296
     74 C24         4.7930   -4.3940   -2.2770 c         1 MOL      0.516677
     75 O13         4.6950   -5.2240   -3.1910 o         1 MOL     -0.560317
     76 H32         6.3170   -1.9990   -0.9090 hn        1 MOL      0.224356
     77 H33         6.9000   -4.4880   -2.1290 h1        1 MOL      0.098484
     78 H34         6.2080   -2.9620   -2.8150 h1        1 MOL      0.098484
     79 N8          3.7840   -4.1310   -1.3930 n         1 MOL     -0.164397
     80 C25         2.3950   -4.5850   -1.4810 c3        1 MOL     -0.372561
     81 C26         1.3890   -3.4290   -1.4520 c         1 MOL      0.666159
     82 O14         1.5090   -2.5130   -0.6390 o         1 MOL     -0.607808
     83 C27         1.9390   -5.6240   -0.4750 c3        1 MOL      0.497534
     84 C28         2.6320   -7.0070   -0.7630 c3        1 MOL     -0.425909
     85 O15         2.2370   -5.2280    0.8560 oh        1 MOL     -0.630906
     86 H35         4.1030   -3.6230   -0.5810 hn        1 MOL      0.196482
     87 H36         2.2340   -5.0790   -2.4370 h1        1 MOL      0.117544
     88 H37         0.8690   -5.7870   -0.5860 h1        1 MOL      0.012799
     89 H38         3.1450   -4.9370    0.8990 ho        1 MOL      0.421707
     90 H39         2.1140   -7.4980   -1.5900 hc        1 MOL      0.104791
     91 H40         3.6990   -6.9200   -0.9320 hc        1 MOL      0.104791
     92 H41         2.3680   -7.5300    0.1580 hc        1 MOL      0.104791
     93 N9          0.3570   -3.4610   -2.2950 n         1 MOL     -0.446912
     94 C29        -0.7660   -2.4800   -2.3300 c3        1 MOL      0.014484
     95 C30        -2.0550   -3.1240   -1.7300 c         1 MOL      0.407789
     96 O16        -2.3340   -4.2880   -1.9380 o         1 MOL     -0.560635
     97 C31        -0.9520   -1.9580   -3.8180 c3        1 MOL      0.280479
     98 C32         0.3170   -1.5580   -4.5400 c3        1 MOL      0.124546
     99 C33        -1.9900   -0.7910   -3.7520 c3        1 MOL     -0.404529
    100 C34         0.1390   -1.5570   -6.0300 c3        1 MOL     -0.154510
    101 H42         0.3700   -4.2480   -2.9350 hn        1 MOL      0.259324
    102 H43        -0.5660   -1.6330   -1.6770 h1        1 MOL      0.093623
    103 H44        -1.3850   -2.7360   -4.4550 hc        1 MOL     -0.043045
    104 H45         1.0540   -2.3150   -4.2780 hc        1 MOL     -0.032877
    105 H46         0.6520   -0.5820   -4.1840 hc        1 MOL     -0.032877
    106 H47        -1.5010    0.0790   -3.3280 hc        1 MOL      0.058065
    107 H48        -2.4910   -0.6050   -4.7000 hc        1 MOL      0.058065
    108 H49        -2.8630   -0.9580   -3.1030 hc        1 MOL      0.058065
    109 H50         0.0050   -2.5920   -6.3650 hc        1 MOL      0.032422
    110 H51        -0.6520   -0.8640   -6.3160 hc        1 MOL      0.032422
    111 H52         1.0200   -1.2230   -6.5700 hc        1 MOL      0.032422
    112 N10        -2.7010   -2.4340   -0.8210 n         1 MOL     -0.157088
    113 C35        -3.9870   -2.8500   -0.2340 c3        1 MOL      0.024996
    114 C36        -5.1990   -2.2880   -0.9300 c         1 MOL      0.399405
    115 O17        -5.0900   -1.1990   -1.5560 o         1 MOL     -0.441858
    116 C37        -3.9490   -2.3920    1.2300 c3        1 MOL     -0.060139
    117 C38        -2.8120   -2.9440    2.1330 c3        1 MOL     -0.360168
    118 O18        -3.8900   -0.9230    1.4010 oh        1 MOL     -0.286137
    119 H53        -2.4330   -1.4980   -0.5480 hn        1 MOL      0.350284
    120 H54        -4.1300   -3.9270   -0.3380 h1        1 MOL      0.116490
    121 H55        -4.8510   -2.7220    1.7340 h1        1 MOL      0.043316
    122 H56        -3.8180   -0.7030    2.3370 ho        1 MOL      0.348919
    123 H57        -2.9320   -4.0110    2.3230 hc        1 MOL      0.116506
    124 H58        -1.8550   -2.7140    1.6580 hc        1 MOL      0.116506
    125 H59        -2.7970   -2.4980    3.1250 hc        1 MOL      0.116506
    126 N11        -6.4040   -2.7590   -0.6850 n         1 MOL     -0.304875
    127 C39        -7.6460   -2.0250   -0.8520 c3        1 MOL      0.049306
    128 C40        -7.6610   -0.5320   -0.4750 c         1 MOL      0.152472
    129 O19        -8.2250    0.2590   -1.1350 o         1 MOL     -0.431663
    130 C41        -8.7200   -2.6100    0.0740 c3        1 MOL      0.363590
    131 C42       -10.0800   -2.1300   -0.1980 c3        1 MOL     -0.303040
    132 O20        -8.8100   -3.9910   -0.0920 oh        1 MOL     -0.608284
    133 H60        -6.4160   -3.6950   -0.3240 hn        1 MOL      0.235281
    134 H61        -8.0830   -2.1140   -1.8560 h1        1 MOL      0.134412
    135 H62        -8.4980   -2.4120    1.1250 h1        1 MOL     -0.047896
    136 H63        -9.3500   -4.2560    0.6500 ho        1 MOL      0.388408
    137 H64       -10.3410   -2.2380   -1.2520 hc        1 MOL      0.082370
    138 H65       -10.8420   -2.5730    0.4470 hc        1 MOL      0.082370
    139 H66       -10.0490   -1.0730    0.0730 hc        1 MOL      0.082370
    140 N12        -6.9910   -0.0870    0.6130 n         1 MOL     -0.027154
    141 C43        -6.8900    1.3340    1.0610 c3        1 MOL     -0.024223
    142 C44        -5.8190    2.1410    0.3410 c         1 MOL      0.340330
    143 O21        -6.1980    3.2240   -0.0730 o         1 MOL     -0.499978
    144 C45        -6.7980    1.4040    2.6300 c3        1 MOL     -0.027568
    145 C46        -7.9280    0.8220    3.4230 c3        1 MOL     -0.027789
    146 C47        -7.6900    1.0610    4.9760 c3        1 MOL      0.031604
    147 C48        -8.7130    0.2400    5.9280 c3        1 MOL      0.029450
    148 N13       -10.1010    0.7900    5.8340 n4        1 MOL     -0.142539
    149 H67        -6.3310   -0.7530    0.9900 hn        1 MOL      0.060157
    150 H68        -7.8700    1.7750    0.8710 h1        1 MOL      0.114884
    151 H69        -6.6630    2.4560    2.8890 hc        1 MOL      0.019304
    152 H70        -5.9020    0.8830    2.9780 hc        1 MOL      0.019304
    153 H71        -8.1470   -0.2210    3.1830 hc        1 MOL     -0.010482
    154 H72        -8.8130    1.3620    3.1120 hc        1 MOL     -0.010482
    155 H73        -7.7590    2.0610    5.3800 hc        1 MOL      0.039842
    156 H74        -6.6540    0.7630    5.1570 hc        1 MOL      0.039842
    157 H75        -8.2970    0.2900    6.9340 hx        1 MOL      0.059584
    158 H76        -8.8260   -0.8070    5.6600 hx        1 MOL      0.059584
    159 H77       -10.4480    0.5020    4.9240 hn        1 MOL      0.222221
    160 H78       -10.7050    0.3630    6.5310 hn        1 MOL      0.222221
    161 H79       -10.1490    1.7940    5.7930 hn        1 MOL      0.222221
    162 N14        -4.6640    1.5810    0.0140 n         1 MOL      0.008257
    163 C49        -3.6760    2.2740   -0.8280 c3        1 MOL     -0.302665
    164 C50        -4.1710    2.5030   -2.2450 c         1 MOL      0.476681
    165 O22        -3.8920    3.5280   -2.8300 o         1 MOL     -0.564144
    166 C51        -2.3340    1.5090   -0.7480 c3        1 MOL      0.009648
    167 C52        -1.6150    1.5480    0.6120 c3        1 MOL     -0.192466
    168 C53        -0.4130    0.6590    0.6330 c         1 MOL      0.778119
    169 O23         0.6710    1.1910    0.9850 o         1 MOL     -0.813003
    170 O24        -0.5010   -0.5730    0.5040 o         1 MOL     -0.813003
    171 H80        -4.4480    0.6820    0.4130 hn        1 MOL     -0.007757
    172 H81        -3.6020    3.2950   -0.4600 h1        1 MOL      0.127229
    173 H82        -1.6560    1.9990   -1.4420 hc        1 MOL      0.094737
    174 H83        -2.5790    0.5010   -1.0890 hc        1 MOL      0.094737
    175 H84        -2.2730    1.2170    1.4160 hc        1 MOL      0.036962
    176 H85        -1.3780    2.5990    0.7430 hc        1 MOL      0.036962
    177 N15        -4.8140    1.5050   -2.7880 n         1 MOL     -0.066227
    178 C54        -5.4000    1.4650   -4.1610 c3        1 MOL     -0.319953
    179 H86        -6.1110    2.2830   -4.2760 h1        1 MOL      0.117584
    180 H87        -4.6040    1.5700   -4.8990 h1        1 MOL      0.117584
    181 H88        -5.9130    0.5150   -4.3110 h1        1 MOL      0.117584
    182 H89        -4.7680    0.6160   -2.3030 hn        1 MOL      0.211116
    183 Ca1         2.0230   -0.9200    1.5020 Ca        1 MOL      1.759206
    184 O25         0.3350   -0.4870    3.6270 oh        1 MOL     -0.782612
    185 H90         0.7090    0.3360    3.9440 ho        1 MOL      0.372021
    186 H91        -0.4060   -0.6530    4.2030 ho        1 MOL      0.372021
    187 O26         0.6700   -3.1960    2.1660 oh        1 MOL     -0.782612
    188 H92        -0.0540   -3.4840    2.7190 ho        1 MOL      0.372021
    189 H93         1.0170   -4.0020    1.7850 ho        1 MOL      0.372021
@<TRIPOS>BOND
     1    1    2 1   
     2    1    4 1   
     3    1    5 1   
     4    1    6 1   
     5    2    3 2   
     6    2    7 1   
     7    7    8 1   
     8    7   15 1   
     9    8    9 1   
    10    8   11 1   
    11    8   16 1   
    12    9   10 2   
    13    9   19 1   
    14   11   12 1   
    15   11   17 1   
    16   11   18 1   
    17   12   13 1   
    18   12   14 1   
    19   19   20 1   
    20   19   28 1   
    21   20   21 1   
    22   20   23 1   
    23   20   29 1   
    24   21   22 2   
    25   21   41 1   
    26   23   24 1   
    27   23   30 1   
    28   23   31 1   
    29   24   25 1   
    30   24   32 1   
    31   24   33 1   
    32   25   26 1   
    33   25   34 1   
    34   25   35 1   
    35   26   27 1   
    36   26   36 1   
    37   26   37 1   
    38   27   38 1   
    39   27   39 1   
    40   27   40 1   
    41   41   42 1   
    42   41   49 1   
    43   42   43 1   
    44   42   45 1   
    45   42   50 1   
    46   43   44 2   
    47   43   53 1   
    48   45   46 1   
    49   45   51 1   
    50   45   52 1   
    51   46   47 1   
    52   46   48 1   
    53   53   54 1   
    54   53   57 1   
    55   54   55 1   
    56   54   58 1   
    57   54   59 1   
    58   55   56 2   
    59   55   60 1   
    60   60   61 1   
    61   60   68 1   
    62   61   62 1   
    63   61   64 1   
    64   61   69 1   
    65   62   63 2   
    66   62   72 1   
    67   64   65 1   
    68   64   70 1   
    69   64   71 1   
    70   65   66 1   
    71   65   67 1   
    72   72   73 1   
    73   72   76 1   
    74   73   74 1   
    75   73   77 1   
    76   73   78 1   
    77   74   75 2   
    78   74   79 1   
    79   79   80 1   
    80   79   86 1   
    81   80   81 1   
    82   80   83 1   
    83   80   87 1   
    84   81   82 2   
    85   81   93 1   
    86   83   84 1   
    87   83   85 1   
    88   83   88 1   
    89   84   90 1   
    90   84   91 1   
    91   84   92 1   
    92   85   89 1   
    93   93   94 1   
    94   93  101 1   
    95   94   95 1   
    96   94   97 1   
    97   94  102 1   
    98   95   96 2   
    99   95  112 1   
   100   97   98 1   
   101   97   99 1   
   102   97  103 1   
   103   98  100 1   
   104   98  104 1   
   105   98  105 1   
   106   99  106 1   
   107   99  107 1   
   108   99  108 1   
   109  100  109 1   
   110  100  110 1   
   111  100  111 1   
   112  112  113 1   
   113  112  119 1   
   114  113  114 1   
   115  113  116 1   
   116  113  120 1   
   117  114  115 2   
   118  114  126 1   
   119  116  117 1   
   120  116  118 1   
   121  116  121 1   
   122  117  123 1   
   123  117  124 1   
   124  117  125 1   
   125  118  122 1   
   126  126  127 1   
   127  126  133 1   
   128  127  128 1   
   129  127  130 1   
   130  127  134 1   
   131  128  129 2   
   132  128  140 1   
   133  130  131 1   
   134  130  132 1   
   135  130  135 1   
   136  131  137 1   
   137  131  138 1   
   138  131  139 1   
   139  132  136 1   
   140  140  141 1   
   141  140  149 1   
   142  141  142 1   
   143  141  144 1   
   144  141  150 1   
   145  142  143 2   
   146  142  162 1   
   147  144  145 1   
   148  144  151 1   
   149  144  152 1   
   150  145  146 1   
   151  145  153 1   
   152  145  154 1   
   153  146  147 1   
   154  146  155 1   
   155  146  156 1   
   156  147  148 1   
   157  147  157 1   
   158  147  158 1   
   159  148  159 1   
   160  148  160 1   
   161  148  161 1   
   162  162  163 1   
   163  162  171 1   
   164  163  164 1   
   165  163  166 1   
   166  163  172 1   
   167  164  165 2   
   168  164  177 1   
   169  166  167 1   
   170  166  173 1   
   171  166  174 1   
   172  167  168 1   
   173  167  175 1   
   174  167  176 1   
   175  168  169 1   
   176  168  170 1   
   177  177  178 1   
   178  177  182 1   
   179  178  179 1   
   180  178  180 1   
   181  178  181 1   
   182  184  185 1   
   183  184  186 1   
   184  187  188 1   
   185  187  189 1   
@<TRIPOS>SUBSTRUCTURE
     1 MOL         1 TEMP              0 ****  ****    0 ROOT
