@<TRIPOS>MOLECULE
MOL
  172   171     1     0     0
SMALL
resp


@<TRIPOS>ATOM
      1 C1          0.3720    3.8250    5.6870 c3        1 MOL     -0.434706
      2 C2         -0.2660    3.6780    4.3260 c         1 MOL      0.718614
      3 O1          0.4240    3.4300    3.3070 o         1 MOL     -0.539939
      4 H1         -0.2810    3.3890    6.4420 hc        1 MOL      0.113361
      5 H2          1.3320    3.3100    5.6960 hc        1 MOL      0.113361
      6 H3          0.5230    4.8830    5.9050 hc        1 MOL      0.113361
      7 N1         -1.6120    3.8240    4.1490 n         1 MOL     -0.660507
      8 C3         -2.2520    3.5270    2.8460 c3        1 MOL      0.378262
      9 C4         -2.3160    4.7290    1.9100 c         1 MOL      0.510710
     10 O2         -2.6310    5.8030    2.3360 o         1 MOL     -0.581446
     11 C5         -3.7180    3.0290    3.0430 c3        1 MOL     -0.451301
     12 C6         -4.1680    2.1090    1.9540 c         1 MOL      0.734309
     13 O3         -5.3270    1.5910    2.0950 o         1 MOL     -0.660114
     14 O4         -3.4850    1.9070    0.9070 o         1 MOL     -0.660114
     15 H4         -2.1670    4.0060    4.9810 hn        1 MOL      0.312720
     16 H5         -1.6370    2.7840    2.3460 h1        1 MOL     -0.037002
     17 H6         -4.3800    3.8850    3.1610 hc        1 MOL      0.113260
     18 H7         -3.6200    2.3420    3.8830 hc        1 MOL      0.113260
     19 N2         -1.9900    4.5880    0.6300 n         1 MOL     -0.281745
     20 C7         -1.9370    5.6910   -0.3400 c3        1 MOL      0.078906
     21 C8         -2.6430    5.2560   -1.6710 c         1 MOL      0.492156
     22 O5         -2.6710    6.0360   -2.6440 o         1 MOL     -0.552471
     23 C9         -0.4860    6.1560   -0.4880 c3        1 MOL     -0.191337
     24 H8         -1.4560    3.7890    0.3150 hn        1 MOL      0.234459
     25 H9         -2.5750    6.4680    0.0750 h1        1 MOL      0.048672
     26 H10         0.0770    5.3610   -0.9840 hc        1 MOL      0.055213
     27 H11        -0.3730    6.9360   -1.2420 hc        1 MOL      0.055213
     28 H12         0.0630    6.3390    0.4300 hc        1 MOL      0.055213
     29 N3         -3.2380    4.0130   -1.6500 n         1 MOL     -0.322879
     30 C10        -4.1320    3.5480   -2.7690 c3        1 MOL      0.208769
     31 C11        -5.5310    2.9630   -2.3660 c         1 MOL      0.296621
     32 O6         -6.4980    3.0310   -3.1070 o         1 MOL     -0.547949
     33 C12        -3.3750    2.5250   -3.6510 c3        1 MOL     -0.337799
     34 C13        -2.8020    1.4160   -2.7410 c         1 MOL      0.766718
     35 O7         -1.5640    1.1540   -2.6310 o         1 MOL     -0.723233
     36 O8         -3.5870    0.8060   -2.0380 o         1 MOL     -0.723233
     37 H13        -3.1980    3.5080   -0.7780 hn        1 MOL      0.119438
     38 H14        -4.4260    4.4150   -3.3540 h1        1 MOL      0.049917
     39 H15        -2.5670    3.0560   -4.1510 hc        1 MOL      0.080296
     40 H16        -4.1280    2.0840   -4.3070 hc        1 MOL      0.080296
     41 N4         -5.7740    2.4380   -1.2210 n         1 MOL     -0.120454
     42 C14        -7.0330    1.8290   -0.7420 c3        1 MOL     -0.353706
     43 C15        -7.2740    0.3380   -1.2780 c         1 MOL      0.559885
     44 O9         -8.3910   -0.0920   -1.1690 o         1 MOL     -0.584009
     45 H17        -4.9110    2.2430   -0.7320 hn        1 MOL      0.145539
     46 H18        -7.8720    2.4140   -1.1100 h1        1 MOL      0.161517
     47 H19        -7.0520    1.7510    0.3410 h1        1 MOL      0.161517
     48 N5         -6.2260   -0.3550   -1.7560 n         1 MOL     -0.196307
     49 C16        -6.3330   -1.7220   -2.2430 c3        1 MOL     -0.319454
     50 C17        -6.4600   -2.8210   -1.1910 c         1 MOL      0.626187
     51 O10        -6.5330   -4.0130   -1.5630 o         1 MOL     -0.568245
     52 C18        -5.1940   -1.8830   -3.2310 c3        1 MOL      0.072756
     53 C19        -3.8520   -2.0510   -2.6690 c         1 MOL      0.568342
     54 N6         -2.8320   -2.3860   -3.4590 n         1 MOL     -0.743731
     55 O11        -3.6360   -1.9810   -1.4750 o         1 MOL     -0.457831
     56 H20        -5.3080    0.0330   -1.8930 hn        1 MOL      0.284369
     57 H21        -7.2810   -1.7810   -2.7970 h1        1 MOL      0.136595
     58 H22        -5.1910   -1.1570   -4.0430 hc        1 MOL      0.015889
     59 H23        -5.3020   -2.7750   -3.8500 hc        1 MOL      0.015889
     60 H24        -2.7940   -2.3100   -4.4600 hn        1 MOL      0.344174
     61 H25        -1.9660   -2.4610   -2.9450 hn        1 MOL      0.344174
     62 N7         -6.4040   -2.3990    0.0560 n         1 MOL     -0.432730
     63 C20        -6.6150   -3.1920    1.3500 c3        1 MOL      0.092961
     64 C21        -5.4940   -4.2140    1.5880 c         1 MOL      0.375486
     65 O12        -5.7530   -5.2830    2.1480 o         1 MOL     -0.559030
     66 H26        -6.1360   -1.4490    0.2670 hn        1 MOL      0.324733
     67 H27        -7.5660   -3.6570    1.5850 h1        1 MOL      0.035039
     68 H28        -6.5790   -2.4850    2.1840 h1        1 MOL      0.035039
     69 N8         -4.3180   -3.8370    1.1290 n         1 MOL     -0.009477
     70 C22        -2.9980   -4.5020    1.4080 c3        1 MOL     -0.199790
     71 C23        -1.9290   -3.5050    1.7050 c         1 MOL      0.533410
     72 O13        -2.1510   -2.3460    1.3180 o         1 MOL     -0.605964
     73 C24        -2.6210   -5.3730    0.1720 c3        1 MOL      0.537294
     74 C25        -3.6950   -6.5210   -0.0450 c3        1 MOL     -0.420383
     75 O14        -2.6010   -4.6530   -0.9810 oh        1 MOL     -0.624974
     76 H29        -4.3650   -2.9220    0.7100 hn        1 MOL      0.063995
     77 H30        -3.1810   -5.1560    2.2490 h1        1 MOL      0.067612
     78 H31        -1.6350   -5.7680    0.4200 h1        1 MOL     -0.067606
     79 H32        -2.0150   -3.9030   -0.8790 ho        1 MOL      0.413882
     80 H33        -3.2560   -7.2880   -0.6780 hc        1 MOL      0.104955
     81 H34        -3.8720   -6.9960    0.9170 hc        1 MOL      0.104955
     82 H35        -4.6410   -6.1110   -0.4090 hc        1 MOL      0.104955
     83 N9         -0.6890   -3.8160    2.0630 n         1 MOL     -0.467298
     84 C26         0.4650   -2.9220    2.0480 c3        1 MOL      0.098611
     85 C27         1.3390   -3.2360    0.8610 c         1 MOL      0.508913
     86 O15         1.4340   -4.4060    0.5570 o         1 MOL     -0.572920
     87 C28         1.3960   -3.0100    3.2850 c3        1 MOL      0.136559
     88 C29         0.7120   -3.1920    4.6610 c3        1 MOL      0.036716
     89 C30         2.2990   -1.7610    3.2550 c3        1 MOL     -0.419805
     90 C31         1.7780   -3.3180    5.8410 c3        1 MOL     -0.227677
     91 H36        -0.4940   -4.6830    2.5380 hn        1 MOL      0.280816
     92 H37         0.0980   -1.9010    2.0300 h1        1 MOL      0.049288
     93 H38         2.0320   -3.8960    3.2930 hc        1 MOL      0.001489
     94 H39         0.2010   -4.1590    4.6400 hc        1 MOL      0.000793
     95 H40         0.0370   -2.3820    4.9360 hc        1 MOL      0.000793
     96 H41         2.9110   -1.7520    2.3520 hc        1 MOL      0.100823
     97 H42         1.6880   -0.8670    3.4040 hc        1 MOL      0.100823
     98 H43         3.0690   -1.7130    4.0150 hc        1 MOL      0.100823
     99 H44         2.3670   -2.4280    6.0530 hc        1 MOL      0.054019
    100 H45         1.2390   -3.5070    6.7660 hc        1 MOL      0.054019
    101 H46         2.5570   -4.0350    5.5720 hc        1 MOL      0.054019
    102 N10         1.8770   -2.1640    0.1810 n         1 MOL     -0.244183
    103 C32         2.6640   -2.2330   -1.0370 c3        1 MOL      0.169314
    104 C33         4.0260   -1.5660   -0.8400 c         1 MOL      0.188761
    105 O16         4.2130   -0.7580    0.1220 o         1 MOL     -0.115797
    106 C34         1.9710   -1.4110   -2.1040 c3        1 MOL     -0.214019
    107 C35         0.5170   -1.8380   -2.3820 c         1 MOL      0.694522
    108 O17         0.3670   -2.4990   -3.4390 o         1 MOL     -0.675768
    109 O18        -0.4470   -1.5610   -1.6270 o         1 MOL     -0.675768
    110 H47         1.5900   -1.2600    0.5310 hn        1 MOL      0.023546
    111 H48         2.8420   -3.2510   -1.3720 h1        1 MOL      0.052993
    112 H49         2.4840   -1.5320   -3.0570 hc        1 MOL      0.072468
    113 H50         1.9770   -0.3920   -1.7140 hc        1 MOL      0.072468
    114 N11         5.1100   -1.7800   -1.6270 n         1 MOL     -0.471390
    115 C36         6.5310   -1.3160   -1.3580 c3        1 MOL      0.267158
    116 C37         6.7020    0.1900   -1.1120 c         1 MOL      0.258231
    117 O19         7.4610    0.4880   -0.1950 o         1 MOL     -0.436259
    118 C38         7.4580   -1.9130   -2.4760 c3        1 MOL     -0.252519
    119 C39         8.8940   -1.8720   -2.1140 ca        1 MOL      0.128458
    120 C40         9.6290   -0.7420   -2.5430 ca        1 MOL     -0.201112
    121 C41         9.4840   -2.8570   -1.3350 ca        1 MOL     -0.201112
    122 C42        10.9800   -0.6440   -2.1750 ca        1 MOL     -0.020705
    123 C43        10.8470   -2.6950   -1.0190 ca        1 MOL     -0.020705
    124 C44        11.6470   -1.5990   -1.4300 ca        1 MOL     -0.245230
    125 H51         4.9750   -2.2050   -2.5340 hn        1 MOL      0.282354
    126 H52         6.8070   -1.8870   -0.4670 h1        1 MOL      0.069208
    127 H53         7.3150   -1.4390   -3.4480 hc        1 MOL      0.080753
    128 H54         7.1680   -2.9570   -2.6310 hc        1 MOL      0.080753
    129 H55         9.1940    0.0140   -3.1790 ha        1 MOL      0.127571
    130 H56         8.9400   -3.7570   -1.0820 ha        1 MOL      0.127571
    131 H57        11.4350    0.3250   -2.3540 ha        1 MOL      0.082259
    132 H58        11.3550   -3.4650   -0.4670 ha        1 MOL      0.082259
    133 H59        12.5930   -1.3210   -0.9970 ha        1 MOL      0.151740
    134 N12         5.9340    1.1130   -1.8620 n         1 MOL     -0.034149
    135 C45         6.0920    2.5370   -1.5890 c3        1 MOL     -0.003361
    136 C46         5.6250    2.7760   -0.1380 c         1 MOL      0.261388
    137 O20         5.8340    3.8550    0.4730 o         1 MOL     -0.515896
    138 C47         5.2110    3.2350   -2.6190 c3        1 MOL     -0.073541
    139 C48         5.1720    2.2470   -3.8540 c3        1 MOL     -0.010586
    140 C49         5.2240    0.8800   -3.1610 c3        1 MOL      0.024187
    141 H60         7.1330    2.8750   -1.6730 h1        1 MOL      0.071936
    142 H61         4.1930    3.2670   -2.2280 hc        1 MOL      0.061924
    143 H62         5.5000    4.2550   -2.8780 hc        1 MOL      0.061924
    144 H63         4.3080    2.3680   -4.5080 hc        1 MOL      0.017542
    145 H64         6.0820    2.3500   -4.4430 hc        1 MOL      0.017542
    146 H65         4.2160    0.4910   -3.0560 h1        1 MOL      0.020383
    147 H66         5.8190    0.1690   -3.7320 h1        1 MOL      0.020383
    148 N13         4.8270    1.8590    0.4980 n         1 MOL     -0.036944
    149 C50         4.1890    2.0450    1.7970 c3        1 MOL      0.000131
    150 C51         4.8680    1.2700    2.9260 c         1 MOL      0.348906
    151 O21         4.9730    1.7010    4.0970 o         1 MOL     -0.548512
    152 C52         2.8020    1.4990    1.7490 c3        1 MOL      0.168559
    153 C53         1.9220    1.9800    0.6490 c3        1 MOL     -0.140750
    154 C54         0.5760    1.3610    0.5440 c         1 MOL      0.770113
    155 O22        -0.3770    1.9530    0.0340 o         1 MOL     -0.738110
    156 O23         0.3810    0.2210    0.9910 o         1 MOL     -0.738110
    157 H67         4.5710    0.9850    0.0470 hn        1 MOL      0.011308
    158 H68         4.1640    3.0700    2.1800 h1        1 MOL      0.077020
    159 H69         2.3080    1.7930    2.6660 hc        1 MOL     -0.009392
    160 H70         2.8540    0.4140    1.6660 hc        1 MOL     -0.009392
    161 H71         2.4420    1.7850   -0.2870 hc        1 MOL      0.022013
    162 H72         1.8380    3.0570    0.7600 hc        1 MOL      0.022013
    163 N14         5.5150    0.1510    2.5290 n         1 MOL      0.023040
    164 C55         6.5950   -0.4770    3.2470 c3        1 MOL     -0.289131
    165 H73         6.5700   -0.1610    4.2900 h1        1 MOL      0.090928
    166 H74         6.4850   -1.5600    3.1940 h1        1 MOL      0.090928
    167 H75         7.5460   -0.1860    2.8030 h1        1 MOL      0.090928
    168 H76         5.2270   -0.2480    1.6450 hn        1 MOL      0.030376
    169 Ca1        -1.9450   -0.0670   -0.0760 Ca        1 MOL      1.711250
    170 O24        -4.2810   -0.7550    1.1350 oh        1 MOL     -0.911068
    171 H77        -4.5300    0.1440    1.2850 ho        1 MOL      0.405402
    172 H78        -4.1620   -1.1310    2.0100 ho        1 MOL      0.405402
@<TRIPOS>BOND
     1    1    2 1   
     2    1    4 1   
     3    1    5 1   
     4    1    6 1   
     5    2    3 2   
     6    2    7 1   
     7    7    8 1   
     8    7   15 1   
     9    8    9 1   
    10    8   11 1   
    11    8   16 1   
    12    9   10 2   
    13    9   19 1   
    14   11   12 1   
    15   11   17 1   
    16   11   18 1   
    17   12   13 1   
    18   12   14 1   
    19   19   20 1   
    20   19   24 1   
    21   20   21 1   
    22   20   23 1   
    23   20   25 1   
    24   21   22 2   
    25   21   29 1   
    26   23   26 1   
    27   23   27 1   
    28   23   28 1   
    29   29   30 1   
    30   29   37 1   
    31   30   31 1   
    32   30   33 1   
    33   30   38 1   
    34   31   32 2   
    35   31   41 1   
    36   33   34 1   
    37   33   39 1   
    38   33   40 1   
    39   34   35 1   
    40   34   36 1   
    41   41   42 1   
    42   41   45 1   
    43   42   43 1   
    44   42   46 1   
    45   42   47 1   
    46   43   44 2   
    47   43   48 1   
    48   48   49 1   
    49   48   56 1   
    50   49   50 1   
    51   49   52 1   
    52   49   57 1   
    53   50   51 2   
    54   50   62 1   
    55   52   53 1   
    56   52   58 1   
    57   52   59 1   
    58   53   54 1   
    59   53   55 2   
    60   54   60 1   
    61   54   61 1   
    62   62   63 1   
    63   62   66 1   
    64   63   64 1   
    65   63   67 1   
    66   63   68 1   
    67   64   65 2   
    68   64   69 1   
    69   69   70 1   
    70   69   76 1   
    71   70   71 1   
    72   70   73 1   
    73   70   77 1   
    74   71   72 2   
    75   71   83 1   
    76   73   74 1   
    77   73   75 1   
    78   73   78 1   
    79   74   80 1   
    80   74   81 1   
    81   74   82 1   
    82   75   79 1   
    83   83   84 1   
    84   83   91 1   
    85   84   85 1   
    86   84   87 1   
    87   84   92 1   
    88   85   86 2   
    89   85  102 1   
    90   87   88 1   
    91   87   89 1   
    92   87   93 1   
    93   88   90 1   
    94   88   94 1   
    95   88   95 1   
    96   89   96 1   
    97   89   97 1   
    98   89   98 1   
    99   90   99 1   
   100   90  100 1   
   101   90  101 1   
   102  102  103 1   
   103  102  110 1   
   104  103  104 1   
   105  103  106 1   
   106  103  111 1   
   107  104  105 2   
   108  104  114 1   
   109  106  107 1   
   110  106  112 1   
   111  106  113 1   
   112  107  108 1   
   113  107  109 1   
   114  114  115 1   
   115  114  125 1   
   116  115  116 1   
   117  115  118 1   
   118  115  126 1   
   119  116  117 2   
   120  116  134 1   
   121  118  119 1   
   122  118  127 1   
   123  118  128 1   
   124  119  120 ar  
   125  119  121 ar  
   126  120  122 ar  
   127  120  129 1   
   128  121  123 ar  
   129  121  130 1   
   130  122  124 ar  
   131  122  131 1   
   132  123  124 ar  
   133  123  132 1   
   134  124  133 1   
   135  134  135 1   
   136  134  140 1   
   137  135  136 1   
   138  135  138 1   
   139  135  141 1   
   140  136  137 2   
   141  136  148 1   
   142  138  139 1   
   143  138  142 1   
   144  138  143 1   
   145  139  140 1   
   146  139  144 1   
   147  139  145 1   
   148  140  146 1   
   149  140  147 1   
   150  148  149 1   
   151  148  157 1   
   152  149  150 1   
   153  149  152 1   
   154  149  158 1   
   155  150  151 2   
   156  150  163 1   
   157  152  153 1   
   158  152  159 1   
   159  152  160 1   
   160  153  154 1   
   161  153  161 1   
   162  153  162 1   
   163  154  155 1   
   164  154  156 1   
   165  163  164 1   
   166  163  168 1   
   167  164  165 1   
   168  164  166 1   
   169  164  167 1   
   170  170  171 1   
   171  170  172 1   
@<TRIPOS>SUBSTRUCTURE
     1 MOL         1 TEMP              0 ****  ****    0 ROOT
