@<TRIPOS>MOLECULE
MOL
  186   183     1     0     0
SMALL
resp


@<TRIPOS>ATOM
      1 C1          0.0210   -1.6960    6.2090 c3        1 MOL     -0.224124
      2 C2          0.5810   -1.9430    4.7660 c         1 MOL      0.781120
      3 O1         -0.0960   -2.5480    3.9500 o         1 MOL     -0.617835
      4 H1          0.2200   -2.5690    6.8300 hc        1 MOL      0.038901
      5 H2          0.5090   -0.8240    6.6440 hc        1 MOL      0.038901
      6 H3         -1.0540   -1.5240    6.1580 hc        1 MOL      0.038901
      7 N1          1.7970   -1.5790    4.5430 n         1 MOL     -0.651293
      8 C3          2.3120   -1.5640    3.1380 c3        1 MOL      0.165317
      9 C4          2.7780   -2.9780    2.7130 c         1 MOL      0.575351
     10 O2          3.5820   -3.6190    3.4360 o         1 MOL     -0.628957
     11 C5          3.4290   -0.5040    3.1500 c3        1 MOL     -0.252162
     12 C6          4.2530   -0.4340    1.7920 c         1 MOL      0.613713
     13 O3          5.2700    0.2920    1.8810 o         1 MOL     -0.637563
     14 O4          3.8000   -0.9450    0.7530 o         1 MOL     -0.637563
     15 H4          2.2280   -0.9390    5.1840 hn        1 MOL      0.333791
     16 H5          1.5230   -1.3390    2.4170 h1        1 MOL      0.021939
     17 H6          4.1540   -0.6760    3.9480 hc        1 MOL      0.069749
     18 H7          3.0520    0.4690    3.4370 hc        1 MOL      0.069749
     19 N2          2.2710   -3.5600    1.6220 n         1 MOL      0.048386
     20 C7          2.4330   -4.9420    1.2180 c3        1 MOL     -0.441027
     21 C8          3.5480   -5.2010    0.1830 c         1 MOL      0.725433
     22 O5          3.7680   -6.3290   -0.1970 o         1 MOL     -0.594892
     23 C9          1.1280   -5.6180    0.7090 c3        1 MOL      0.373188
     24 C10         0.6170   -4.9960   -0.6560 c3        1 MOL     -0.347016
     25 C11         0.1400   -5.5040    1.8880 c3        1 MOL     -0.175699
     26 C12        -0.5830   -5.6590   -1.2040 c3        1 MOL     -0.216163
     27 H8          1.6210   -2.9620    1.1250 hn        1 MOL      0.001116
     28 H9          2.7580   -5.4500    2.1230 h1        1 MOL      0.124606
     29 H10         1.3110   -6.6870    0.5840 hc        1 MOL     -0.041430
     30 H11         1.4000   -5.1240   -1.4080 hc        1 MOL      0.162324
     31 H12         0.3280   -3.9680   -0.4810 hc        1 MOL      0.162324
     32 H13        -0.7940   -5.9730    1.5570 hc        1 MOL      0.030729
     33 H14         0.4630   -6.0360    2.7750 hc        1 MOL      0.030729
     34 H15        -0.1170   -4.4760    2.1490 hc        1 MOL      0.030729
     35 H16        -1.4470   -5.2020   -0.7120 hc        1 MOL      0.063757
     36 H17        -0.7280   -5.4040   -2.2630 hc        1 MOL      0.063757
     37 H18        -0.6750   -6.7460   -1.1850 hc        1 MOL      0.063757
     38 N3          4.2540   -4.1240   -0.1880 n         1 MOL     -0.498374
     39 C13         5.2870   -4.2400   -1.2790 c3        1 MOL     -0.018772
     40 C14         6.5740   -3.4410   -1.0500 c         1 MOL      0.554658
     41 O6          7.5650   -3.6590   -1.7180 o         1 MOL     -0.568413
     42 C15         4.6380   -3.8530   -2.5920 c3        1 MOL     -0.222167
     43 C16         3.8570   -2.5290   -2.4750 c         1 MOL      0.677200
     44 O7          2.6500   -2.4750   -2.2230 o         1 MOL     -0.684425
     45 O8          4.4580   -1.4190   -2.5710 o         1 MOL     -0.684425
     46 H19         4.0290   -3.2170    0.2040 hn        1 MOL      0.151380
     47 H20         5.5280   -5.2940   -1.4250 h1        1 MOL      0.112199
     48 H21         3.9660   -4.7010   -2.7880 hc        1 MOL      0.067896
     49 H22         5.3910   -3.7940   -3.3820 hc        1 MOL      0.067896
     50 N4          6.7000   -2.4930   -0.1150 n         1 MOL     -0.353943
     51 C17         7.8990   -1.7070    0.1950 c3        1 MOL     -0.196783
     52 C18         8.0830   -0.4700   -0.6140 c         1 MOL      0.592369
     53 O9          9.1970    0.0310   -0.5570 o         1 MOL     -0.646646
     54 H23         5.8680   -2.0230    0.2350 hn        1 MOL      0.297097
     55 H24         8.7860   -2.3390    0.1610 h1        1 MOL      0.108645
     56 H25         7.7160   -1.3720    1.2160 h1        1 MOL      0.108645
     57 N5          7.1090    0.0560   -1.3280 n         1 MOL     -0.144203
     58 C19         7.3270    1.3960   -1.9440 c3        1 MOL     -0.128463
     59 C20         7.1880    2.5560   -0.9000 c         1 MOL      0.486445
     60 O10         7.2020    3.6930   -1.3630 o         1 MOL     -0.566866
     61 C21         6.3890    1.7270   -3.1900 c3        1 MOL     -0.141715
     62 C22         4.9990    1.9380   -2.7740 c         1 MOL      0.836936
     63 O11         4.1800    2.4820   -3.5670 o         1 MOL     -0.783280
     64 O12         4.5850    1.5220   -1.7290 o         1 MOL     -0.783280
     65 H26         6.2150   -0.4030   -1.3620 hn        1 MOL      0.103557
     66 H27         8.3440    1.3900   -2.3290 h1        1 MOL      0.111320
     67 H28         6.3640    0.8500   -3.8380 hc        1 MOL      0.050105
     68 H29         6.7430    2.5300   -3.8230 hc        1 MOL      0.050105
     69 N6          7.0270    2.2790    0.3510 n         1 MOL     -0.215559
     70 C23         6.9500    3.3050    1.4530 c3        1 MOL     -0.318616
     71 C24         5.5380    3.9600    1.6540 c         1 MOL      0.547569
     72 O13         5.4230    4.9120    2.4800 o         1 MOL     -0.571088
     73 H30         6.8080    1.3230    0.5580 hn        1 MOL      0.246466
     74 H31         7.6620    4.0820    1.2020 h1        1 MOL      0.139030
     75 H32         7.1980    2.7530    2.3660 h1        1 MOL      0.139030
     76 N7          4.5530    3.4130    0.9290 n         1 MOL     -0.274509
     77 C25         3.1190    4.0400    0.9240 c3        1 MOL      0.029457
     78 C26         2.0030    2.9660    1.1400 c         1 MOL      0.566087
     79 O14         2.1130    1.8060    0.7510 o         1 MOL     -0.646797
     80 C27         2.8840    4.8550   -0.2920 c3        1 MOL      0.261027
     81 C28         3.6410    6.1530   -0.3370 c3        1 MOL     -0.457382
     82 C29         2.8450    7.2710   -1.0210 c         1 MOL      0.733334
     83 N8          2.6210    7.1840   -2.3200 n         1 MOL     -0.854728
     84 O15         2.4580    8.2150   -0.3550 o         1 MOL     -0.593981
     85 H33         4.6680    2.5550    0.4100 hn        1 MOL      0.236527
     86 H34         3.1750    4.6690    1.8110 h1        1 MOL      0.020283
     87 H35         1.8250    5.0210   -0.5180 hc        1 MOL     -0.004095
     88 H36         3.1450    4.3070   -1.1970 hc        1 MOL     -0.004095
     89 H37         4.5310    5.8850   -0.8950 hc        1 MOL      0.127890
     90 H38         3.7520    6.5630    0.6630 hc        1 MOL      0.127890
     91 H39         3.0910    6.4710   -2.8590 hn        1 MOL      0.375314
     92 H40         1.9740    7.8310   -2.7480 hn        1 MOL      0.375314
     93 N9          0.8480    3.5070    1.5020 n         1 MOL     -0.484809
     94 C30        -0.3580    2.8040    1.5840 c3        1 MOL      0.010507
     95 C31        -1.3770    3.3130    0.5960 c         1 MOL      0.446255
     96 O16        -1.7610    4.5210    0.5660 o         1 MOL     -0.559185
     97 C32        -0.8880    2.8560    3.0550 c3        1 MOL      0.060179
     98 C33        -2.2860    2.2590    3.2240 c3        1 MOL     -0.155525
     99 C34         0.0740    2.1250    3.9600 c3        1 MOL     -0.155525
    100 H41         0.8580    4.5210    1.5200 hn        1 MOL      0.292171
    101 H42        -0.1650    1.7710    1.3020 h1        1 MOL      0.197594
    102 H43        -0.8040    3.8800    3.4390 hc        1 MOL      0.026742
    103 H44        -2.4830    2.3190    4.2860 hc        1 MOL      0.031995
    104 H45        -3.0150    2.8760    2.6980 hc        1 MOL      0.031995
    105 H46        -2.2340    1.2140    2.9290 hc        1 MOL      0.031995
    106 H47         1.1470    2.3050    3.9100 hc        1 MOL      0.031995
    107 H48        -0.0680    2.5000    4.9680 hc        1 MOL      0.031995
    108 H49        -0.0470    1.0370    3.8760 hc        1 MOL      0.031995
    109 N10        -1.7610    2.4910   -0.4300 n         1 MOL     -0.229714
    110 C35        -2.9530    2.6720   -1.2810 c3        1 MOL      0.085529
    111 C36        -4.2140    2.1490   -0.6110 c         1 MOL      0.419795
    112 O17        -4.1290    1.5310    0.4510 o         1 MOL     -0.324977
    113 C37        -2.6730    2.0090   -2.6690 c3        1 MOL     -0.257620
    114 C38        -3.0960    0.5790   -2.7150 c         1 MOL      0.620125
    115 N11        -2.3620   -0.3840   -2.3060 n         1 MOL     -0.768844
    116 O18        -4.2040    0.3050   -3.1450 o         1 MOL     -0.597837
    117 H50        -1.2950    1.6090   -0.5150 hn        1 MOL      0.136744
    118 H51        -3.1170    3.7380   -1.3980 h1        1 MOL      0.057910
    119 H52        -1.6350    2.1860   -2.9340 hc        1 MOL      0.086235
    120 H53        -3.3120    2.4670   -3.4230 hc        1 MOL      0.086235
    121 H54        -1.4610   -0.1640   -1.9090 hn        1 MOL      0.406319
    122 H55        -2.6010   -1.2900   -2.6920 hn        1 MOL      0.406319
    123 N12        -5.4650    2.3590   -1.1150 n         1 MOL     -0.549618
    124 C39        -6.7150    1.9090   -0.4980 c3        1 MOL      0.282251
    125 C40        -6.7730    0.4220   -0.3230 c         1 MOL      0.583179
    126 O19        -7.3210   -0.0070    0.6580 o         1 MOL     -0.536098
    127 C41        -7.8710    2.3630   -1.3990 c3        1 MOL     -0.116043
    128 C42        -9.2280    2.1530   -0.8040 ca        1 MOL      0.108360
    129 C43        -9.5570    2.7620    0.4160 ca        1 MOL     -0.315858
    130 C44       -10.2280    1.3880   -1.5370 ca        1 MOL     -0.315858
    131 C45       -10.8840    2.6840    0.8720 ca        1 MOL     -0.003172
    132 C46       -11.5080    1.2980   -1.0220 ca        1 MOL     -0.003172
    133 C47       -11.8440    2.0260    0.1470 ca        1 MOL      0.088310
    134 O20       -13.1470    1.9640    0.6170 oh        1 MOL     -0.483304
    135 H56        -5.5950    2.9370   -1.9370 hn        1 MOL      0.270771
    136 H57        -6.7390    2.5240    0.4020 h1        1 MOL      0.021484
    137 H58        -7.8370    1.8000   -2.3280 hc        1 MOL      0.042165
    138 H59        -7.7950    3.4220   -1.6580 hc        1 MOL      0.042165
    139 H60        -8.8460    3.3720    0.9570 ha        1 MOL      0.164467
    140 H61       -10.0350    1.0220   -2.5260 ha        1 MOL      0.164467
    141 H62       -11.1990    3.2570    1.7330 ha        1 MOL      0.086330
    142 H63       -12.2410    0.7320   -1.5840 ha        1 MOL      0.086330
    143 H64       -13.7960    1.7380   -0.0540 ho        1 MOL      0.357374
    144 N13        -6.1670   -0.3480   -1.1910 n         1 MOL     -0.311640
    145 C48        -6.2490   -1.8240   -1.0840 c3        1 MOL     -0.062407
    146 C49        -5.4560   -2.3880    0.0550 c         1 MOL      0.328011
    147 O21        -5.8100   -3.3590    0.7060 o         1 MOL     -0.502351
    148 C50        -5.7890   -2.3080   -2.4410 c3        1 MOL     -0.003669
    149 C51        -6.1480   -3.8130   -2.5570 c3        1 MOL     -0.264337
    150 C52        -5.4100   -4.4700   -3.7370 c         1 MOL      0.769761
    151 O22        -5.9690   -4.5010   -4.8570 o         1 MOL     -0.766461
    152 O23        -4.2890   -4.9880   -3.5220 o         1 MOL     -0.766461
    153 H65        -5.7590    0.0530   -2.0160 hn        1 MOL      0.206240
    154 H66        -7.2830   -2.1440   -0.9780 h1        1 MOL      0.097939
    155 H67        -4.7100   -2.1970   -2.5470 hc        1 MOL      0.043605
    156 H68        -6.3110   -1.7910   -3.2510 hc        1 MOL      0.043605
    157 H69        -7.1860   -4.0590   -2.7570 hc        1 MOL      0.038609
    158 H70        -5.7950   -4.3360   -1.6600 hc        1 MOL      0.038609
    159 N14        -4.3840   -1.6930    0.4270 n         1 MOL      0.105615
    160 C53        -3.6530   -1.9650    1.6720 c3        1 MOL     -0.129281
    161 C54        -4.4130   -1.4870    2.9130 c         1 MOL      0.446037
    162 O24        -4.4530   -2.1660    3.9180 o         1 MOL     -0.547947
    163 C55        -2.3260   -1.2280    1.4660 c3        1 MOL      0.140365
    164 C56        -1.4360   -1.8990    0.4300 c3        1 MOL     -0.133760
    165 C57        -0.1830   -1.0890    0.0940 c         1 MOL      0.611623
    166 O25         0.9800   -1.5540    0.2620 o         1 MOL     -0.614843
    167 O26        -0.2910    0.0160   -0.5410 o         1 MOL     -0.614843
    168 H71        -4.2480   -0.8660   -0.1380 hn        1 MOL     -0.086785
    169 H72        -3.3620   -3.0070    1.8130 h1        1 MOL      0.104645
    170 H73        -1.8720   -1.1920    2.4540 hc        1 MOL     -0.001788
    171 H74        -2.4530   -0.1880    1.1560 hc        1 MOL     -0.001788
    172 H75        -1.9590   -2.2000   -0.4790 hc        1 MOL      0.054070
    173 H76        -1.1630   -2.8000    0.9830 hc        1 MOL      0.054070
    174 N15        -5.0980   -0.3650    2.7800 n         1 MOL      0.004899
    175 C58        -5.8240    0.3240    3.8330 c3        1 MOL     -0.207384
    176 H77        -5.8030   -0.2770    4.7410 h1        1 MOL      0.070692
    177 H78        -5.3570    1.2900    4.0250 h1        1 MOL      0.070692
    178 H79        -6.8580    0.4760    3.5220 h1        1 MOL      0.070692
    179 H80        -5.2080    0.1020    1.8890 hn        1 MOL      0.006053
    180 Ca1         2.4930   -0.0320   -1.1710 Ca        1 MOL      1.771600
    181 O27         1.6730    2.2330   -2.6550 oh        1 MOL     -0.924405
    182 H81         1.2040    2.1160   -3.4790 ho        1 MOL      0.428599
    183 H82         2.5720    2.4520   -2.9110 ho        1 MOL      0.428599
    184 O28         0.8360   -0.5720   -3.3880 oh        1 MOL     -0.924405
    185 H83         0.7940   -0.2090   -4.2670 ho        1 MOL      0.428599
    186 H84         0.2710   -1.3420   -3.4260 ho        1 MOL      0.428599
@<TRIPOS>BOND
     1    1    2 1   
     2    1    4 1   
     3    1    5 1   
     4    1    6 1   
     5    2    3 2   
     6    2    7 1   
     7    7    8 1   
     8    7   15 1   
     9    8    9 1   
    10    8   11 1   
    11    8   16 1   
    12    9   10 2   
    13    9   19 1   
    14   11   12 1   
    15   11   17 1   
    16   11   18 1   
    17   12   13 1   
    18   12   14 1   
    19   19   20 1   
    20   19   27 1   
    21   20   21 1   
    22   20   23 1   
    23   20   28 1   
    24   21   22 2   
    25   21   38 1   
    26   23   24 1   
    27   23   25 1   
    28   23   29 1   
    29   24   26 1   
    30   24   30 1   
    31   24   31 1   
    32   25   32 1   
    33   25   33 1   
    34   25   34 1   
    35   26   35 1   
    36   26   36 1   
    37   26   37 1   
    38   38   39 1   
    39   38   46 1   
    40   39   40 1   
    41   39   42 1   
    42   39   47 1   
    43   40   41 2   
    44   40   50 1   
    45   42   43 1   
    46   42   48 1   
    47   42   49 1   
    48   43   44 1   
    49   43   45 1   
    50   50   51 1   
    51   50   54 1   
    52   51   52 1   
    53   51   55 1   
    54   51   56 1   
    55   52   53 2   
    56   52   57 1   
    57   57   58 1   
    58   57   65 1   
    59   58   59 1   
    60   58   61 1   
    61   58   66 1   
    62   59   60 2   
    63   59   69 1   
    64   61   62 1   
    65   61   67 1   
    66   61   68 1   
    67   62   63 1   
    68   62   64 1   
    69   69   70 1   
    70   69   73 1   
    71   70   71 1   
    72   70   74 1   
    73   70   75 1   
    74   71   72 2   
    75   71   76 1   
    76   76   77 1   
    77   76   85 1   
    78   77   78 1   
    79   77   80 1   
    80   77   86 1   
    81   78   79 2   
    82   78   93 1   
    83   80   81 1   
    84   80   87 1   
    85   80   88 1   
    86   81   82 1   
    87   81   89 1   
    88   81   90 1   
    89   82   83 1   
    90   82   84 2   
    91   83   91 1   
    92   83   92 1   
    93   93   94 1   
    94   93  100 1   
    95   94   95 1   
    96   94   97 1   
    97   94  101 1   
    98   95   96 2   
    99   95  109 1   
   100   97   98 1   
   101   97   99 1   
   102   97  102 1   
   103   98  103 1   
   104   98  104 1   
   105   98  105 1   
   106   99  106 1   
   107   99  107 1   
   108   99  108 1   
   109  109  110 1   
   110  109  117 1   
   111  110  111 1   
   112  110  113 1   
   113  110  118 1   
   114  111  112 2   
   115  111  123 1   
   116  113  114 1   
   117  113  119 1   
   118  113  120 1   
   119  114  115 1   
   120  114  116 2   
   121  115  121 1   
   122  115  122 1   
   123  123  124 1   
   124  123  135 1   
   125  124  125 1   
   126  124  127 1   
   127  124  136 1   
   128  125  126 2   
   129  125  144 1   
   130  127  128 1   
   131  127  137 1   
   132  127  138 1   
   133  128  129 ar  
   134  128  130 ar  
   135  129  131 ar  
   136  129  139 1   
   137  130  132 ar  
   138  130  140 1   
   139  131  133 ar  
   140  131  141 1   
   141  132  133 ar  
   142  132  142 1   
   143  133  134 1   
   144  134  143 1   
   145  144  145 1   
   146  144  153 1   
   147  145  146 1   
   148  145  148 1   
   149  145  154 1   
   150  146  147 2   
   151  146  159 1   
   152  148  149 1   
   153  148  155 1   
   154  148  156 1   
   155  149  150 1   
   156  149  157 1   
   157  149  158 1   
   158  150  151 1   
   159  150  152 1   
   160  159  160 1   
   161  159  168 1   
   162  160  161 1   
   163  160  163 1   
   164  160  169 1   
   165  161  162 2   
   166  161  174 1   
   167  163  164 1   
   168  163  170 1   
   169  163  171 1   
   170  164  165 1   
   171  164  172 1   
   172  164  173 1   
   173  165  166 1   
   174  165  167 1   
   175  174  175 1   
   176  174  179 1   
   177  175  176 1   
   178  175  177 1   
   179  175  178 1   
   180  181  182 1   
   181  181  183 1   
   182  184  185 1   
   183  184  186 1   
@<TRIPOS>SUBSTRUCTURE
     1 MOL         1 TEMP              0 ****  ****    0 ROOT
