@<TRIPOS>MOLECULE
MOL
  183   181     1     0     0
SMALL
resp


@<TRIPOS>ATOM
      1 C1         -0.4860    1.6610    6.1840 c3        1 MOL     -0.408603
      2 C2         -1.0390    1.7630    4.7980 c         1 MOL      0.787190
      3 O1         -0.4350    2.3060    3.9470 o         1 MOL     -0.584910
      4 H1         -1.2720    1.3310    6.8640 hc        1 MOL      0.092276
      5 H2          0.3320    0.9400    6.1970 hc        1 MOL      0.092276
      6 H3         -0.1170    2.6360    6.5010 hc        1 MOL      0.092276
      7 N1         -2.2060    1.1910    4.5060 n         1 MOL     -0.654161
      8 C3         -2.7830    1.1720    3.1120 c3        1 MOL      0.153641
      9 C4         -3.2660    2.6270    2.7730 c         1 MOL      0.533151
     10 O2         -4.2200    3.1240    3.3550 o         1 MOL     -0.564726
     11 C5         -3.9370    0.1630    3.2920 c3        1 MOL     -0.285251
     12 C6         -4.6620   -0.0200    1.9920 c         1 MOL      0.797614
     13 O3         -5.8000   -0.5810    1.9830 o         1 MOL     -0.669196
     14 O4         -4.0820    0.3060    0.9230 o         1 MOL     -0.669196
     15 H4         -2.6660    0.6380    5.2130 hn        1 MOL      0.321679
     16 H5         -2.1300    0.7970    2.3210 h1        1 MOL      0.055607
     17 H6         -4.7420    0.4590    3.9750 hc        1 MOL      0.058667
     18 H7         -3.5480   -0.8160    3.5710 hc        1 MOL      0.058667
     19 N2         -2.5770    3.2320    1.8060 n         1 MOL     -0.213703
     20 C7         -2.8630    4.5540    1.2710 c3        1 MOL     -0.005638
     21 C8         -4.1360    4.6680    0.3910 c         1 MOL      0.363653
     22 O5         -4.8270    5.7590    0.4330 o         1 MOL     -0.552493
     23 C9         -1.5150    5.0230    0.5720 c3        1 MOL      0.178841
     24 C10        -0.6040    5.5610    1.6340 c3        1 MOL      0.127869
     25 C11        -1.7710    6.2860   -0.3480 c3        1 MOL     -0.311019
     26 C12         0.9090    5.5930    1.2320 c3        1 MOL     -0.281912
     27 H8         -1.8410    2.6760    1.3960 hn        1 MOL      0.147078
     28 H9         -2.9920    5.3220    2.0340 h1        1 MOL      0.032608
     29 H10        -1.0310    4.2690   -0.0400 hc        1 MOL      0.039725
     30 H11        -0.6970    4.8820    2.4860 hc        1 MOL     -0.035054
     31 H12        -0.8770    6.5320    2.0350 hc        1 MOL     -0.035054
     32 H13        -0.8930    6.7400   -0.8060 hc        1 MOL      0.072141
     33 H14        -2.3920    5.9970   -1.1990 hc        1 MOL      0.072141
     34 H15        -2.3190    7.0270    0.2340 hc        1 MOL      0.072141
     35 H16         1.0620    5.8980    0.1940 hc        1 MOL      0.063903
     36 H17         1.4160    6.2420    1.9330 hc        1 MOL      0.063903
     37 H18         1.2810    4.5730    1.3580 hc        1 MOL      0.063903
     38 N3         -4.3940    3.6500   -0.4560 n         1 MOL     -0.134158
     39 C13        -5.3910    3.8520   -1.5430 c3        1 MOL     -0.120992
     40 C14        -6.5980    2.9510   -1.5260 c         1 MOL      0.455111
     41 O6         -7.1390    2.5770   -2.5820 o         1 MOL     -0.449243
     42 C15        -4.6520    3.7040   -2.9180 c3        1 MOL     -0.033075
     43 C16        -3.6920    2.5430   -3.1250 c         1 MOL      0.741162
     44 O7         -2.9210    2.6120   -4.1680 o         1 MOL     -0.709088
     45 O8         -3.5030    1.7190   -2.2320 o         1 MOL     -0.709088
     46 H19        -4.0090    2.7320   -0.3040 hn        1 MOL      0.081653
     47 H20        -5.8060    4.8500   -1.4190 h1        1 MOL      0.101021
     48 H21        -4.0020    4.5850   -3.0150 hc        1 MOL      0.002019
     49 H22        -5.3170    3.7050   -3.7820 hc        1 MOL      0.002019
     50 N4         -6.8490    2.4000   -0.2830 n         1 MOL     -0.306917
     51 C17        -8.0290    1.5350   -0.0580 c3        1 MOL     -0.210313
     52 C18        -8.2460    0.2390   -0.8700 c         1 MOL      0.585486
     53 O9         -9.1370    0.1720   -1.6760 o         1 MOL     -0.576440
     54 H23        -6.2300    2.5530    0.4920 hn        1 MOL      0.278401
     55 H24        -8.9000    2.1560   -0.2470 h1        1 MOL      0.083626
     56 H25        -7.9860    1.2620    0.9890 h1        1 MOL      0.083626
     57 N5         -7.4300   -0.7840   -0.6890 n         1 MOL     -0.296874
     58 C19        -7.4050   -2.0460   -1.3430 c3        1 MOL     -0.039039
     59 C20        -7.0190   -3.2250   -0.3900 c         1 MOL      0.470185
     60 O10        -7.1270   -4.4000   -0.6690 o         1 MOL     -0.580313
     61 C21        -6.5650   -2.0540   -2.6120 c3        1 MOL     -0.039624
     62 C22        -5.1020   -1.7520   -2.3450 c         1 MOL      0.821896
     63 O11        -4.4080   -1.3320   -3.2480 o         1 MOL     -0.776594
     64 O12        -4.5760   -1.9980   -1.2680 o         1 MOL     -0.776594
     65 H26        -6.6750   -0.6580   -0.0270 hn        1 MOL      0.125585
     66 H27        -8.4130   -2.3370   -1.6450 h1        1 MOL      0.070180
     67 H28        -6.9550   -1.3180   -3.3200 hc        1 MOL      0.019243
     68 H29        -6.5970   -2.9890   -3.1700 hc        1 MOL      0.019243
     69 N6         -6.6630   -2.9680    0.8640 n         1 MOL     -0.257744
     70 C23        -6.3480   -3.9570    1.9610 c3        1 MOL     -0.094708
     71 C24        -4.8880   -4.4340    1.9910 c         1 MOL      0.520901
     72 O13        -4.5080   -5.2360    2.9020 o         1 MOL     -0.628132
     73 H30        -6.3930   -2.0160    1.0980 hn        1 MOL      0.188606
     74 H31        -6.9290   -4.8640    1.8290 h1        1 MOL      0.074564
     75 H32        -6.6160   -3.4870    2.9050 h1        1 MOL      0.074564
     76 N7         -4.0010   -3.9580    1.1530 n         1 MOL     -0.131557
     77 C25        -2.6380   -4.4360    1.0590 c3        1 MOL     -0.047302
     78 C26        -1.6290   -3.3050    1.0500 c         1 MOL      0.756890
     79 O14        -1.9600   -2.1430    0.9420 o         1 MOL     -0.683667
     80 C27        -2.5310   -5.4090   -0.1620 c3        1 MOL     -0.017391
     81 C28        -2.7210   -4.9120   -1.5500 c3        1 MOL     -0.218683
     82 C29        -1.6280   -3.9720   -1.9590 c         1 MOL      0.600161
     83 N8         -0.5680   -4.5330   -2.4780 n         1 MOL     -0.734421
     84 O15        -1.6710   -2.7060   -1.9310 o         1 MOL     -0.544406
     85 H33        -4.2270   -3.2160    0.5060 hn        1 MOL      0.168339
     86 H34        -2.4400   -5.0290    1.9540 h1        1 MOL      0.054673
     87 H35        -3.2400   -6.1990    0.0710 hc        1 MOL      0.012894
     88 H36        -1.5830   -5.9320   -0.0240 hc        1 MOL      0.012894
     89 H37        -3.6930   -4.4370   -1.6650 hc        1 MOL      0.078614
     90 H38        -2.6150   -5.8010   -2.1770 hc        1 MOL      0.078614
     91 H39        -0.5520   -5.5360   -2.6140 hn        1 MOL      0.353234
     92 H40         0.0610   -3.8350   -2.8540 hn        1 MOL      0.353234
     93 N9         -0.3500   -3.6460    1.1800 n         1 MOL     -0.588590
     94 C30         0.7330   -2.6580    1.5430 c3        1 MOL     -0.027644
     95 C31         1.9330   -3.1140    0.6770 c         1 MOL      0.405633
     96 O16         2.4440   -4.1820    0.9590 o         1 MOL     -0.556589
     97 C32         1.0470   -2.6550    3.0280 c3        1 MOL      0.158374
     98 C33         2.1270   -1.6770    3.3780 c3        1 MOL     -0.262434
     99 C34        -0.2010   -2.1960    3.8020 c3        1 MOL     -0.262434
    100 H41        -0.0380   -4.6160    1.1900 hn        1 MOL      0.313617
    101 H42         0.3530   -1.6940    1.1990 h1        1 MOL      0.161561
    102 H43         1.3300   -3.6000    3.4990 hc        1 MOL      0.003735
    103 H44         2.5450   -1.6890    4.3800 hc        1 MOL      0.062302
    104 H45         2.9340   -1.8750    2.6660 hc        1 MOL      0.062302
    105 H46         1.7940   -0.6610    3.1940 hc        1 MOL      0.062302
    106 H47        -0.6190   -1.3230    3.3060 hc        1 MOL      0.062302
    107 H48        -0.9550   -2.9250    3.5180 hc        1 MOL      0.062302
    108 H49        -0.0500   -2.0450    4.8670 hc        1 MOL      0.062302
    109 N10         2.2350   -2.3340   -0.3190 n         1 MOL     -0.154438
    110 C35         3.4010   -2.3670   -1.1530 c3        1 MOL      0.043379
    111 C36         4.6550   -1.8490   -0.3900 c         1 MOL      0.249585
    112 O17         4.5410   -1.1720    0.6310 o         1 MOL     -0.178558
    113 C37         3.1500   -1.5320   -2.4250 c3        1 MOL     -0.358160
    114 C38         2.1520   -2.1630   -3.3830 c         1 MOL      0.748122
    115 N11         0.8470   -1.9610   -3.0980 n         1 MOL     -0.841135
    116 O18         2.5390   -2.9050   -4.2290 o         1 MOL     -0.594291
    117 H50         1.6270   -1.5300   -0.3590 hn        1 MOL      0.177079
    118 H51         3.6770   -3.3880   -1.4270 h1        1 MOL      0.084754
    119 H52         4.0410   -1.4210   -3.0550 hc        1 MOL      0.098149
    120 H53         2.8790   -0.4770   -2.3780 hc        1 MOL      0.098149
    121 H54         0.5400   -1.3940   -2.3200 hn        1 MOL      0.362356
    122 H55         0.2100   -2.1740   -3.8570 hn        1 MOL      0.362356
    123 N12         5.8280   -2.2940   -0.7090 n         1 MOL     -0.343635
    124 C39         7.0710   -1.7940   -0.1810 c3        1 MOL     -0.003440
    125 C40         7.1950   -0.2370   -0.1580 c         1 MOL      0.691785
    126 O19         7.6620    0.2840    0.8500 o         1 MOL     -0.510094
    127 C41         8.2230   -2.4470   -0.9930 c3        1 MOL     -0.057304
    128 C42         9.5670   -1.9260   -0.6030 ca        1 MOL      0.087382
    129 C43        10.0240   -2.0860    0.6980 ca        1 MOL     -0.268373
    130 C44        10.3750   -1.1380   -1.4200 ca        1 MOL     -0.268373
    131 C45        11.2320   -1.5500    1.1650 ca        1 MOL     -0.149338
    132 C46        11.4940   -0.4210   -0.9410 ca        1 MOL     -0.149338
    133 C47        11.9360   -0.6210    0.3660 ca        1 MOL      0.287047
    134 O20        12.9880    0.0820    0.8010 oh        1 MOL     -0.507194
    135 H56         5.9580   -3.0440   -1.3650 hn        1 MOL      0.254928
    136 H57         7.0290   -2.1790    0.8410 h1        1 MOL      0.080962
    137 H58         8.1480   -2.3890   -2.0820 hc        1 MOL      0.036880
    138 H59         8.2870   -3.5140   -0.7800 hc        1 MOL      0.036880
    139 H60         9.4360   -2.6380    1.4170 ha        1 MOL      0.148351
    140 H61         9.9510   -1.0760   -2.4170 ha        1 MOL      0.148351
    141 H62        11.5740   -1.6710    2.1830 ha        1 MOL      0.111408
    142 H63        12.1760    0.0320   -1.6500 ha        1 MOL      0.111408
    143 H64        13.2870    0.7830    0.2170 ho        1 MOL      0.379922
    144 N13         6.7510    0.4840   -1.2020 n         1 MOL     -0.575761
    145 C48         6.5770    1.9280   -1.0450 c3        1 MOL      0.039531
    146 C49         5.4940    2.3300    0.0110 c         1 MOL      0.322937
    147 O21         5.6610    3.4560    0.4410 o         1 MOL     -0.493602
    148 C50         6.3220    2.5840   -2.4400 c3        1 MOL      0.126754
    149 C51         4.9500    2.2620   -3.1150 c3        1 MOL     -0.393230
    150 C52         4.6790    3.2560   -4.2790 c         1 MOL      0.724029
    151 O22         4.8500    4.4900   -4.1550 o         1 MOL     -0.713964
    152 O23         4.2910    2.8750   -5.4370 o         1 MOL     -0.713964
    153 H65         6.4040   -0.0010   -2.0130 hn        1 MOL      0.304970
    154 H66         7.4540    2.3520   -0.5750 h1        1 MOL      0.048866
    155 H67         7.2590    2.4110   -2.9710 hc        1 MOL      0.003025
    156 H68         6.2920    3.6600   -2.2700 hc        1 MOL      0.003025
    157 H69         4.1740    2.3730   -2.3510 hc        1 MOL      0.061161
    158 H70         4.9440    1.2010   -3.3580 hc        1 MOL      0.061161
    159 N14         4.4300    1.5710    0.3060 n         1 MOL     -0.051962
    160 C53         3.4560    1.9980    1.2880 c3        1 MOL     -0.144399
    161 C54         4.0770    1.6600    2.7360 c         1 MOL      0.456900
    162 O24         3.9040    2.3810    3.6780 o         1 MOL     -0.538068
    163 C55         2.1100    1.2640    1.0080 c3        1 MOL      0.243989
    164 C56         1.4280    1.6340   -0.2780 c3        1 MOL     -0.111378
    165 C57         0.1240    0.8430   -0.5250 c         1 MOL      0.612845
    166 O25        -0.9840    1.4310   -0.3170 o         1 MOL     -0.647980
    167 O26         0.0170   -0.3770   -0.7290 o         1 MOL     -0.647980
    168 H71         4.3310    0.6390   -0.0800 hn        1 MOL      0.123696
    169 H72         3.3640    3.0830    1.1870 h1        1 MOL      0.101672
    170 H73         1.4200    1.4310    1.8370 hc        1 MOL     -0.026002
    171 H74         2.2540    0.1920    1.0110 hc        1 MOL     -0.026002
    172 H75         2.1370    1.4490   -1.0800 hc        1 MOL      0.042880
    173 H76         1.1200    2.6780   -0.2300 hc        1 MOL      0.042880
    174 N15         4.8710    0.5740    2.8830 n         1 MOL      0.013624
    175 C58         5.5500    0.2930    4.1490 c3        1 MOL     -0.390315
    176 H77         4.8160   -0.0170    4.8920 h1        1 MOL      0.122150
    177 H78         6.2780   -0.5050    4.0020 h1        1 MOL      0.122150
    178 H79         6.0600    1.1910    4.4960 h1        1 MOL      0.122150
    179 H80         5.0930    0.0140    2.0710 hn        1 MOL     -0.050587
    180 Ca1        -2.6190   -0.3810   -1.1720 Ca        1 MOL      1.728082
    181 O27        -1.4480    0.2660   -3.5060 oh        1 MOL     -0.838688
    182 H81        -1.9560    1.0220   -3.8010 ho        1 MOL      0.389244
    183 H82        -1.1660   -0.1730   -4.3110 ho        1 MOL      0.389244
@<TRIPOS>BOND
     1    1    2 1   
     2    1    4 1   
     3    1    5 1   
     4    1    6 1   
     5    2    3 2   
     6    2    7 1   
     7    7    8 1   
     8    7   15 1   
     9    8    9 1   
    10    8   11 1   
    11    8   16 1   
    12    9   10 2   
    13    9   19 1   
    14   11   12 1   
    15   11   17 1   
    16   11   18 1   
    17   12   13 1   
    18   12   14 1   
    19   19   20 1   
    20   19   27 1   
    21   20   21 1   
    22   20   23 1   
    23   20   28 1   
    24   21   22 2   
    25   21   38 1   
    26   23   24 1   
    27   23   25 1   
    28   23   29 1   
    29   24   26 1   
    30   24   30 1   
    31   24   31 1   
    32   25   32 1   
    33   25   33 1   
    34   25   34 1   
    35   26   35 1   
    36   26   36 1   
    37   26   37 1   
    38   38   39 1   
    39   38   46 1   
    40   39   40 1   
    41   39   42 1   
    42   39   47 1   
    43   40   41 2   
    44   40   50 1   
    45   42   43 1   
    46   42   48 1   
    47   42   49 1   
    48   43   44 1   
    49   43   45 1   
    50   50   51 1   
    51   50   54 1   
    52   51   52 1   
    53   51   55 1   
    54   51   56 1   
    55   52   53 2   
    56   52   57 1   
    57   57   58 1   
    58   57   65 1   
    59   58   59 1   
    60   58   61 1   
    61   58   66 1   
    62   59   60 2   
    63   59   69 1   
    64   61   62 1   
    65   61   67 1   
    66   61   68 1   
    67   62   63 1   
    68   62   64 1   
    69   69   70 1   
    70   69   73 1   
    71   70   71 1   
    72   70   74 1   
    73   70   75 1   
    74   71   72 2   
    75   71   76 1   
    76   76   77 1   
    77   76   85 1   
    78   77   78 1   
    79   77   80 1   
    80   77   86 1   
    81   78   79 2   
    82   78   93 1   
    83   80   81 1   
    84   80   87 1   
    85   80   88 1   
    86   81   82 1   
    87   81   89 1   
    88   81   90 1   
    89   82   83 1   
    90   82   84 2   
    91   83   91 1   
    92   83   92 1   
    93   93   94 1   
    94   93  100 1   
    95   94   95 1   
    96   94   97 1   
    97   94  101 1   
    98   95   96 2   
    99   95  109 1   
   100   97   98 1   
   101   97   99 1   
   102   97  102 1   
   103   98  103 1   
   104   98  104 1   
   105   98  105 1   
   106   99  106 1   
   107   99  107 1   
   108   99  108 1   
   109  109  110 1   
   110  109  117 1   
   111  110  111 1   
   112  110  113 1   
   113  110  118 1   
   114  111  112 2   
   115  111  123 1   
   116  113  114 1   
   117  113  119 1   
   118  113  120 1   
   119  114  115 1   
   120  114  116 2   
   121  115  121 1   
   122  115  122 1   
   123  123  124 1   
   124  123  135 1   
   125  124  125 1   
   126  124  127 1   
   127  124  136 1   
   128  125  126 2   
   129  125  144 1   
   130  127  128 1   
   131  127  137 1   
   132  127  138 1   
   133  128  129 ar  
   134  128  130 ar  
   135  129  131 ar  
   136  129  139 1   
   137  130  132 ar  
   138  130  140 1   
   139  131  133 ar  
   140  131  141 1   
   141  132  133 ar  
   142  132  142 1   
   143  133  134 1   
   144  134  143 1   
   145  144  145 1   
   146  144  153 1   
   147  145  146 1   
   148  145  148 1   
   149  145  154 1   
   150  146  147 2   
   151  146  159 1   
   152  148  149 1   
   153  148  155 1   
   154  148  156 1   
   155  149  150 1   
   156  149  157 1   
   157  149  158 1   
   158  150  151 1   
   159  150  152 1   
   160  159  160 1   
   161  159  168 1   
   162  160  161 1   
   163  160  163 1   
   164  160  169 1   
   165  161  162 2   
   166  161  174 1   
   167  163  164 1   
   168  163  170 1   
   169  163  171 1   
   170  164  165 1   
   171  164  172 1   
   172  164  173 1   
   173  165  166 1   
   174  165  167 1   
   175  174  175 1   
   176  174  179 1   
   177  175  176 1   
   178  175  177 1   
   179  175  178 1   
   180  181  182 1   
   181  181  183 1   
@<TRIPOS>SUBSTRUCTURE
     1 MOL         1 TEMP              0 ****  ****    0 ROOT
