@<TRIPOS>MOLECULE
MOL
  179   176     1     0     0
SMALL
resp


@<TRIPOS>ATOM
      1 C1          0.3740    4.9330    4.7850 c3        1 MOL     -0.404316
      2 C2         -0.0780    4.2980    3.3770 c         1 MOL      0.741716
      3 O1          0.7160    4.3600    2.4790 o         1 MOL     -0.574669
      4 H1          0.1030    4.2530    5.5930 hc        1 MOL      0.097117
      5 H2          1.4530    5.0870    4.7850 hc        1 MOL      0.097117
      6 H3         -0.1290    5.8890    4.9320 hc        1 MOL      0.097117
      7 N1         -1.3230    3.8400    3.2540 n         1 MOL     -0.688593
      8 C3         -1.7260    3.0940    2.0530 c3        1 MOL      0.581530
      9 C4         -2.2310    4.0390    1.0260 c         1 MOL      0.177510
     10 O2         -3.4070    4.4520    1.0950 o         1 MOL     -0.478179
     11 C5         -2.6750    1.9760    2.3800 c3        1 MOL     -0.249060
     12 C6         -3.1730    1.1920    1.2550 c         1 MOL      0.629960
     13 O3         -2.7970    1.4660    0.1010 o         1 MOL     -0.646555
     14 O4         -4.1460    0.4230    1.4240 o         1 MOL     -0.646555
     15 H4         -1.8630    3.7490    4.0930 hn        1 MOL      0.324671
     16 H5         -0.8970    2.6140    1.5450 h1        1 MOL     -0.091286
     17 H6         -3.5140    2.3510    2.9740 hc        1 MOL      0.061360
     18 H7         -2.0520    1.3580    3.0290 hc        1 MOL      0.061360
     19 N2         -1.3430    4.6730    0.2920 n         1 MOL     -0.124063
     20 C7         -1.6960    5.8540   -0.5720 c3        1 MOL     -0.026532
     21 C8         -2.8430    5.6390   -1.5390 c         1 MOL      0.469964
     22 O5         -3.4440    6.6040   -1.9480 o         1 MOL     -0.552112
     23 C9         -0.3960    6.4530   -1.1090 c3        1 MOL     -0.119228
     24 C10         0.5420    6.8990    0.0000 c3        1 MOL      0.013273
     25 C11        -0.0500    7.8960    1.0210 c3        1 MOL     -0.006698
     26 C12         1.1300    8.5030    1.8050 c3        1 MOL      0.022702
     27 N3          0.6490    9.5240    2.7860 n4        1 MOL     -0.257916
     28 H8         -0.3950    4.4150    0.5080 hn        1 MOL      0.233174
     29 H9         -2.0970    6.5560    0.1590 h1        1 MOL      0.058805
     30 H10        -0.6150    7.2880   -1.7720 hc        1 MOL      0.066563
     31 H11         0.1490    5.7190   -1.7030 hc        1 MOL      0.066563
     32 H12         1.4260    7.3410   -0.4530 hc        1 MOL      0.024776
     33 H13         0.8390    5.9790    0.5050 hc        1 MOL      0.024776
     34 H14        -0.6780    7.4380    1.7980 hc        1 MOL      0.024528
     35 H15        -0.6170    8.6920    0.5310 hc        1 MOL      0.024528
     36 H16         1.8590    8.9530    1.1200 hx        1 MOL      0.079914
     37 H17         1.5530    7.6740    2.3630 hx        1 MOL      0.079914
     38 H18         0.1140   10.2680    2.3760 hn        1 MOL      0.296775
     39 H19        -0.0180    9.1130    3.4250 hn        1 MOL      0.296775
     40 H20         1.4210    9.9110    3.3220 hn        1 MOL      0.296775
     41 N4         -3.2360    4.3740   -1.8130 n         1 MOL     -0.049653
     42 C13        -4.2720    3.9950   -2.7540 c3        1 MOL      0.048350
     43 C14        -5.4550    3.1940   -2.1820 c         1 MOL      0.326074
     44 O6         -6.6080    3.1110   -2.7180 o         1 MOL     -0.540192
     45 C15        -3.6830    3.0280   -3.8030 c3        1 MOL     -0.295868
     46 C16        -2.7820    1.9140   -3.2150 c         1 MOL      0.768191
     47 O7         -1.6080    2.1460   -2.8200 o         1 MOL     -0.735256
     48 O8         -3.2160    0.7510   -3.1520 o         1 MOL     -0.735256
     49 H21        -2.6800    3.6230   -1.4400 hn        1 MOL     -0.016831
     50 H22        -4.6180    4.8890   -3.2710 h1        1 MOL      0.094677
     51 H23        -2.9510    3.5690   -4.3960 hc        1 MOL      0.079723
     52 H24        -4.4260    2.5560   -4.4500 hc        1 MOL      0.079723
     53 N5         -5.2250    2.7110   -0.9690 n         1 MOL      0.075966
     54 C17        -6.2990    2.2180   -0.0560 c3        1 MOL     -0.244878
     55 C18        -6.7630    0.7570   -0.3250 c         1 MOL      0.484684
     56 O9         -7.7430    0.3020    0.2740 o         1 MOL     -0.555782
     57 H25        -4.3190    2.8520   -0.5630 hn        1 MOL     -0.048884
     58 H26        -7.1150    2.9330   -0.1130 h1        1 MOL      0.137828
     59 H27        -5.9200    2.3470    0.9580 h1        1 MOL      0.137828
     60 N6         -5.9430   -0.0610   -1.0000 n         1 MOL     -0.182731
     61 C19        -6.3120   -1.4480   -1.2410 c3        1 MOL     -0.013352
     62 C20        -6.2190   -2.3290   -0.0060 c         1 MOL      0.300903
     63 O10        -6.5890   -3.4550   -0.0630 o         1 MOL     -0.468901
     64 C21        -5.3720   -2.0760   -2.3480 c3        1 MOL     -0.416419
     65 C22        -3.8700   -2.2120   -2.0610 c         1 MOL      0.611180
     66 N7         -3.1540   -3.0760   -2.7400 n         1 MOL     -0.588285
     67 O11        -3.2570   -1.5220   -1.2540 o         1 MOL     -0.517956
     68 H28        -5.0960    0.2920   -1.4060 hn        1 MOL      0.194315
     69 H29        -7.3590   -1.4370   -1.5580 h1        1 MOL      0.124499
     70 H30        -5.5310   -1.5460   -3.2880 hc        1 MOL      0.149003
     71 H31        -5.6470   -3.1150   -2.4640 hc        1 MOL      0.149003
     72 H32        -3.6030   -3.5900   -3.4870 hn        1 MOL      0.301274
     73 H33        -2.1610   -3.0250   -2.5650 hn        1 MOL      0.301274
     74 N8         -5.6330   -1.8280    1.0520 n         1 MOL      0.019367
     75 C23        -5.4120   -2.6660    2.2800 c3        1 MOL     -0.455074
     76 C24        -4.0940   -3.4390    2.3360 c         1 MOL      0.730447
     77 O12        -3.9250   -4.1110    3.3970 o         1 MOL     -0.608500
     78 H34        -5.1900   -0.9150    0.9950 hn        1 MOL      0.187863
     79 H35        -6.1790   -3.4310    2.2690 h1        1 MOL      0.168578
     80 H36        -5.3940   -2.1210    3.2220 h1        1 MOL      0.168578
     81 N9         -3.1340   -3.2450    1.4160 n         1 MOL     -0.454992
     82 C25        -1.7710   -3.8970    1.5320 c3        1 MOL      0.286421
     83 C26        -0.6580   -2.8040    1.2530 c         1 MOL      0.363244
     84 O13        -0.9790   -1.8550    0.5480 o         1 MOL     -0.594158
     85 C27        -1.6810   -5.1120    0.5520 c3        1 MOL      0.150448
     86 C28        -2.8560   -6.1340    0.5910 ca        1 MOL     -0.033851
     87 C29        -4.1120   -5.7760    0.0670 ca        1 MOL     -0.164913
     88 C30        -2.7490   -7.4140    1.1480 ca        1 MOL     -0.164913
     89 C31        -5.2010   -6.6130    0.2450 ca        1 MOL     -0.226147
     90 C32        -3.7770   -8.3650    1.2550 ca        1 MOL     -0.226147
     91 C33        -5.0800   -7.9260    0.7910 ca        1 MOL      0.328335
     92 O14        -6.1850   -8.7210    0.8290 oh        1 MOL     -0.464266
     93 H37        -3.2640   -2.5400    0.7120 hn        1 MOL      0.263936
     94 H38        -1.6350   -4.3170    2.5240 h1        1 MOL     -0.014762
     95 H39        -0.7510   -5.6600    0.7130 hc        1 MOL     -0.055346
     96 H40        -1.7030   -4.7540   -0.4820 hc        1 MOL     -0.055346
     97 H41        -4.1920   -4.8400   -0.4720 ha        1 MOL      0.110813
     98 H42        -1.8030   -7.6400    1.6070 ha        1 MOL      0.110813
     99 H43        -6.1120   -6.4360   -0.3060 ha        1 MOL      0.126981
    100 H44        -3.5220   -9.3700    1.5560 ha        1 MOL      0.126981
    101 H45        -5.9670   -9.5830    1.1940 ho        1 MOL      0.354197
    102 N10         0.5370   -3.0130    1.6810 n         1 MOL     -0.446525
    103 C34         1.7640   -2.1940    1.4340 c3        1 MOL     -0.037217
    104 C35         2.8840   -3.1370    0.9630 c         1 MOL      0.557977
    105 O15         3.2210   -4.0510    1.7230 o         1 MOL     -0.531259
    106 C36         2.2080   -1.3770    2.7270 c3        1 MOL      0.050757
    107 C37         1.1050   -0.4420    3.1710 c3        1 MOL      0.022149
    108 C38         3.6070   -0.7280    2.5840 c3        1 MOL     -0.059967
    109 C39         1.4070    0.3110    4.4870 c3        1 MOL     -0.292164
    110 H46         0.5030   -3.6980    2.4330 hn        1 MOL      0.307330
    111 H47         1.5520   -1.5120    0.6180 h1        1 MOL      0.068058
    112 H48         2.2970   -2.1150    3.5190 hc        1 MOL      0.028232
    113 H49         0.1470   -0.9430    3.2820 hc        1 MOL      0.048423
    114 H50         1.0410    0.3510    2.4310 hc        1 MOL      0.048423
    115 H51         3.7630   -0.2430    1.6180 hc        1 MOL      0.024517
    116 H52         3.7180    0.1340    3.2460 hc        1 MOL      0.024517
    117 H53         4.3400   -1.4940    2.8380 hc        1 MOL      0.024517
    118 H54         0.6290    1.0310    4.7280 hc        1 MOL      0.069696
    119 H55         1.6860   -0.3200    5.3250 hc        1 MOL      0.069696
    120 H56         2.3620    0.8290    4.4750 hc        1 MOL      0.069696
    121 N11         3.5050   -2.9120   -0.2140 n         1 MOL     -0.428787
    122 C40         4.7860   -3.6460   -0.5450 c3        1 MOL     -0.005477
    123 C41         6.0130   -2.8040    0.0800 c         1 MOL      0.356070
    124 O16         5.9010   -1.5930    0.3780 o         1 MOL     -0.338055
    125 C42         4.9470   -3.8380   -2.0220 c3        1 MOL      0.045026
    126 O17         5.2400   -2.5870   -2.7110 oh        1 MOL     -0.538404
    127 H57         3.0100   -2.3070   -0.8590 hn        1 MOL      0.309504
    128 H58         4.7300   -4.6570   -0.1470 h1        1 MOL      0.082441
    129 H59         4.0190   -4.2540   -2.4170 h1        1 MOL      0.073862
    130 H60         5.7200   -4.5830   -2.2040 h1        1 MOL      0.073862
    131 H61         4.4010   -2.1220   -2.7310 ho        1 MOL      0.379858
    132 N12         7.1500   -3.4460    0.1860 n         1 MOL     -0.308425
    133 C43         8.4680   -2.8920    0.5920 c3        1 MOL     -0.021525
    134 C44         8.8740   -1.6170   -0.1800 c         1 MOL      0.610027
    135 O18         9.4590   -0.7030    0.4140 o         1 MOL     -0.518801
    136 C45         9.5720   -4.0020    0.5640 c3        1 MOL     -0.258557
    137 H62         7.0770   -4.4180   -0.0680 hn        1 MOL      0.263825
    138 H63         8.4000   -2.5640    1.6290 h1        1 MOL      0.109168
    139 H64         9.7500   -4.2970   -0.4680 hc        1 MOL      0.089685
    140 H65        10.5610   -3.6620    0.8620 hc        1 MOL      0.089685
    141 H66         9.2320   -4.9010    1.0650 hc        1 MOL      0.089685
    142 N13         8.6080   -1.5780   -1.4910 n         1 MOL     -0.455861
    143 C46         8.7840   -0.3530   -2.3280 c3        1 MOL     -0.007459
    144 C47         7.7600    0.7570   -1.9000 c         1 MOL      0.434233
    145 O19         8.1310    1.9330   -1.7900 o         1 MOL     -0.521385
    146 C48         8.4740   -0.7570   -3.7830 c3        1 MOL     -0.151704
    147 H67         8.1490   -2.3280   -1.9880 hn        1 MOL      0.294999
    148 H68         9.8350   -0.0780   -2.2880 h1        1 MOL      0.123657
    149 H69         9.0810   -1.5490   -4.2220 hc        1 MOL      0.058586
    150 H70         7.4530   -1.0700   -3.9910 hc        1 MOL      0.058586
    151 H71         8.6060    0.1180   -4.4230 hc        1 MOL      0.058586
    152 N14         6.4880    0.4730   -1.6470 n         1 MOL     -0.202215
    153 C49         5.5050    1.3860   -1.0840 c3        1 MOL     -0.211100
    154 C50         5.8030    1.7970    0.3140 c         1 MOL      0.538760
    155 O20         5.4090    2.8500    0.7260 o         1 MOL     -0.568370
    156 C51         4.0710    0.7750   -1.1650 c3        1 MOL      0.124462
    157 C52         2.9290    1.6530   -0.5940 c3        1 MOL     -0.283222
    158 C53         1.5250    1.0570   -0.9210 c         1 MOL      0.778373
    159 O21         0.5350    1.3270   -0.1850 o         1 MOL     -0.759485
    160 O22         1.3430    0.3220   -1.9050 o         1 MOL     -0.759485
    161 H72         6.3080   -0.5160   -1.7280 hn        1 MOL      0.122696
    162 H73         5.5140    2.3350   -1.6400 h1        1 MOL      0.153658
    163 H74         4.0040   -0.2510   -0.7850 hc        1 MOL     -0.007928
    164 H75         3.8500    0.6780   -2.2210 hc        1 MOL     -0.007928
    165 H76         3.0940    2.5880   -1.1350 hc        1 MOL      0.094236
    166 H77         3.0880    1.8370    0.4740 hc        1 MOL      0.094236
    167 N15         6.5740    1.0140    1.1120 n         1 MOL     -0.104275
    168 C54         6.9230    1.3070    2.4990 c3        1 MOL     -0.121334
    169 H78         6.4710    0.5610    3.1530 h1        1 MOL      0.060849
    170 H79         8.0070    1.2830    2.6150 h1        1 MOL      0.060849
    171 H80         6.5510    2.2960    2.7670 h1        1 MOL      0.060849
    172 H81         6.8500    0.1160    0.7560 hn        1 MOL      0.084513
    173 Ca1        -1.2140    0.0090   -1.3850 Ca        1 MOL      1.747416
    174 O23        -0.0840   -2.4800   -2.2380 oh        1 MOL     -0.803566
    175 H82         0.0010   -2.5250   -3.1890 ho        1 MOL      0.400370
    176 H83         0.4400   -3.2080   -1.9170 ho        1 MOL      0.400370
    177 O24        -0.7260   -0.5960   -3.9980 oh        1 MOL     -0.803566
    178 H84        -1.0480   -1.0760   -4.7550 ho        1 MOL      0.400370
    179 H85        -0.3940    0.2340   -4.3500 ho        1 MOL      0.400370
@<TRIPOS>BOND
     1    1    2 1   
     2    1    4 1   
     3    1    5 1   
     4    1    6 1   
     5    2    3 2   
     6    2    7 1   
     7    7    8 1   
     8    7   15 1   
     9    8    9 1   
    10    8   11 1   
    11    8   16 1   
    12    9   10 2   
    13    9   19 1   
    14   11   12 1   
    15   11   17 1   
    16   11   18 1   
    17   12   13 1   
    18   12   14 1   
    19   19   20 1   
    20   19   28 1   
    21   20   21 1   
    22   20   23 1   
    23   20   29 1   
    24   21   22 2   
    25   21   41 1   
    26   23   24 1   
    27   23   30 1   
    28   23   31 1   
    29   24   25 1   
    30   24   32 1   
    31   24   33 1   
    32   25   26 1   
    33   25   34 1   
    34   25   35 1   
    35   26   27 1   
    36   26   36 1   
    37   26   37 1   
    38   27   38 1   
    39   27   39 1   
    40   27   40 1   
    41   41   42 1   
    42   41   49 1   
    43   42   43 1   
    44   42   45 1   
    45   42   50 1   
    46   43   44 2   
    47   43   53 1   
    48   45   46 1   
    49   45   51 1   
    50   45   52 1   
    51   46   47 1   
    52   46   48 1   
    53   53   54 1   
    54   53   57 1   
    55   54   55 1   
    56   54   58 1   
    57   54   59 1   
    58   55   56 2   
    59   55   60 1   
    60   60   61 1   
    61   60   68 1   
    62   61   62 1   
    63   61   64 1   
    64   61   69 1   
    65   62   63 2   
    66   62   74 1   
    67   64   65 1   
    68   64   70 1   
    69   64   71 1   
    70   65   66 1   
    71   65   67 2   
    72   66   72 1   
    73   66   73 1   
    74   74   75 1   
    75   74   78 1   
    76   75   76 1   
    77   75   79 1   
    78   75   80 1   
    79   76   77 2   
    80   76   81 1   
    81   81   82 1   
    82   81   93 1   
    83   82   83 1   
    84   82   85 1   
    85   82   94 1   
    86   83   84 2   
    87   83  102 1   
    88   85   86 1   
    89   85   95 1   
    90   85   96 1   
    91   86   87 ar  
    92   86   88 ar  
    93   87   89 ar  
    94   87   97 1   
    95   88   90 ar  
    96   88   98 1   
    97   89   91 ar  
    98   89   99 1   
    99   90   91 ar  
   100   90  100 1   
   101   91   92 1   
   102   92  101 1   
   103  102  103 1   
   104  102  110 1   
   105  103  104 1   
   106  103  106 1   
   107  103  111 1   
   108  104  105 2   
   109  104  121 1   
   110  106  107 1   
   111  106  108 1   
   112  106  112 1   
   113  107  109 1   
   114  107  113 1   
   115  107  114 1   
   116  108  115 1   
   117  108  116 1   
   118  108  117 1   
   119  109  118 1   
   120  109  119 1   
   121  109  120 1   
   122  121  122 1   
   123  121  127 1   
   124  122  123 1   
   125  122  125 1   
   126  122  128 1   
   127  123  124 2   
   128  123  132 1   
   129  125  126 1   
   130  125  129 1   
   131  125  130 1   
   132  126  131 1   
   133  132  133 1   
   134  132  137 1   
   135  133  134 1   
   136  133  136 1   
   137  133  138 1   
   138  134  135 2   
   139  134  142 1   
   140  136  139 1   
   141  136  140 1   
   142  136  141 1   
   143  142  143 1   
   144  142  147 1   
   145  143  144 1   
   146  143  146 1   
   147  143  148 1   
   148  144  145 2   
   149  144  152 1   
   150  146  149 1   
   151  146  150 1   
   152  146  151 1   
   153  152  153 1   
   154  152  161 1   
   155  153  154 1   
   156  153  156 1   
   157  153  162 1   
   158  154  155 2   
   159  154  167 1   
   160  156  157 1   
   161  156  163 1   
   162  156  164 1   
   163  157  158 1   
   164  157  165 1   
   165  157  166 1   
   166  158  159 1   
   167  158  160 1   
   168  167  168 1   
   169  167  172 1   
   170  168  169 1   
   171  168  170 1   
   172  168  171 1   
   173  174  175 1   
   174  174  176 1   
   175  177  178 1   
   176  177  179 1   
@<TRIPOS>SUBSTRUCTURE
     1 MOL         1 TEMP              0 ****  ****    0 ROOT
