@<TRIPOS>MOLECULE
MOL
  189   185     1     0     0
SMALL
resp


@<TRIPOS>ATOM
      1 C1          0.2920    2.3570    5.5750 c3        1 MOL     -0.412891
      2 C2         -0.2810    2.3920    4.1560 c         1 MOL      0.694044
      3 O1          0.5000    2.6570    3.1900 o         1 MOL     -0.650301
      4 H1          0.1460    3.3270    6.0490 hc        1 MOL      0.112529
      5 H2         -0.2200    1.5880    6.1550 hc        1 MOL      0.112529
      6 H3          1.3570    2.1300    5.5310 hc        1 MOL      0.112529
      7 N1         -1.5440    1.9740    3.8720 n         1 MOL     -0.630052
      8 C3         -2.1500    1.8260    2.5470 c3        1 MOL      0.417946
      9 C4         -2.4960    3.2450    2.0190 c         1 MOL      0.290697
     10 O2         -3.3960    3.8780    2.5100 o         1 MOL     -0.516596
     11 C5         -3.3120    0.9070    2.7000 c3        1 MOL     -0.358289
     12 C6         -3.9550    0.4720    1.3930 c         1 MOL      0.915436
     13 O3         -3.3880    0.7010    0.3280 o         1 MOL     -0.716332
     14 O4         -4.9810   -0.1730    1.4960 o         1 MOL     -0.716332
     15 H4         -2.0400    1.5520    4.6420 hn        1 MOL      0.312638
     16 H5         -1.4590    1.3280    1.8640 h1        1 MOL     -0.042050
     17 H6         -4.1060    1.4160    3.2460 hc        1 MOL      0.064603
     18 H7         -2.9730    0.0360    3.2650 hc        1 MOL      0.064603
     19 N2         -1.7100    3.7030    1.0460 n         1 MOL     -0.061272
     20 C7         -1.7990    5.0600    0.5310 c3        1 MOL     -0.087520
     21 C8         -2.7710    5.1230   -0.6520 c         1 MOL      0.542728
     22 O5         -3.1020    6.2440   -1.0320 o         1 MOL     -0.584743
     23 C9         -0.4440    5.7090    0.2550 c3        1 MOL      0.002033
     24 C10         0.1070    6.5540    1.3850 c3        1 MOL      0.041029
     25 C11         1.6040    6.8440    1.1210 c3        1 MOL     -0.070908
     26 C12         2.3500    7.5880    2.2270 c3        1 MOL     -0.047196
     27 N3          2.3020    6.9330    3.5690 n4        1 MOL     -0.391863
     28 H8         -0.9670    3.1410    0.6670 hn        1 MOL      0.204205
     29 H9         -2.3000    5.7580    1.2040 h1        1 MOL      0.087204
     30 H10        -0.3030    6.2010   -0.7030 hc        1 MOL      0.015932
     31 H11         0.2790    4.9050    0.1260 hc        1 MOL      0.015932
     32 H12        -0.0900    6.0230    2.3120 hc        1 MOL      0.008209
     33 H13        -0.4570    7.4780    1.3100 hc        1 MOL      0.008209
     34 H14         1.7630    7.4680    0.2420 hc        1 MOL      0.067857
     35 H15         2.1680    5.9300    0.9340 hc        1 MOL      0.067857
     36 H16         1.9720    8.5930    2.3840 hx        1 MOL      0.098236
     37 H17         3.4310    7.7330    2.1130 hx        1 MOL      0.098236
     38 H18         2.8800    7.5090    4.1680 hn        1 MOL      0.343919
     39 H19         1.3490    6.8880    3.9040 hn        1 MOL      0.343919
     40 H20         2.6840    6.0060    3.4420 hn        1 MOL      0.343919
     41 N4         -3.2490    4.0250   -1.2380 n         1 MOL     -0.324933
     42 C13        -4.3410    4.0020   -2.2420 c3        1 MOL      0.107307
     43 C14        -5.5820    3.2260   -1.8780 c         1 MOL      0.333678
     44 O6         -6.6490    3.5530   -2.4290 o         1 MOL     -0.514237
     45 C15        -3.7050    3.4620   -3.5270 c3        1 MOL     -0.376320
     46 C16        -2.7600    2.2880   -3.3500 c         1 MOL      0.887231
     47 O7         -2.9710    1.3020   -2.5760 o         1 MOL     -0.707213
     48 O8         -1.7650    2.1170   -4.0530 o         1 MOL     -0.707213
     49 H21        -2.7090    3.1920   -1.0870 hn        1 MOL      0.130673
     50 H22        -4.5850    5.0490   -2.3970 h1        1 MOL      0.113025
     51 H23        -3.1470    4.2830   -3.9810 hc        1 MOL      0.101273
     52 H24        -4.4360    3.2340   -4.3020 hc        1 MOL      0.101273
     53 N5         -5.5430    2.3250   -0.8950 n         1 MOL     -0.059218
     54 C17        -6.7740    1.7580   -0.3350 c3        1 MOL     -0.215644
     55 C18        -7.3470    0.6110   -1.1300 c         1 MOL      0.532673
     56 O9         -8.5550    0.5930   -1.3690 o         1 MOL     -0.567232
     57 H25        -4.6480    2.1560   -0.4560 hn        1 MOL      0.103481
     58 H26        -7.5560    2.5180   -0.3660 h1        1 MOL      0.100891
     59 H27        -6.5740    1.4620    0.7000 h1        1 MOL      0.100891
     60 N6         -6.5410   -0.3400   -1.6060 n         1 MOL     -0.222903
     61 C19        -6.8930   -1.6810   -2.0530 c3        1 MOL     -0.056038
     62 C20        -7.0450   -2.6420   -0.8720 c         1 MOL      0.377067
     63 O10        -7.4500   -3.7860   -1.1300 o         1 MOL     -0.522138
     64 C21        -5.8160   -2.2190   -2.9440 c3        1 MOL     -0.016139
     65 C22        -4.3580   -1.9960   -2.5740 c         1 MOL      0.538115
     66 O11        -3.6730   -1.3870   -3.4130 o         1 MOL     -0.654832
     67 O12        -3.9440   -2.1150   -1.4320 o         1 MOL     -0.654832
     68 H28        -5.5500   -0.2390   -1.4520 hn        1 MOL      0.176564
     69 H29        -7.8400   -1.6830   -2.5960 h1        1 MOL      0.124134
     70 H30        -6.0770   -1.7250   -3.8830 hc        1 MOL      0.025335
     71 H31        -6.0190   -3.2600   -3.1600 hc        1 MOL      0.025335
     72 N7         -6.8110   -2.2700    0.3970 n         1 MOL     -0.184267
     73 C23        -6.8550   -3.1160    1.5740 c3        1 MOL     -0.243780
     74 C24        -5.5900   -3.9630    1.8170 c         1 MOL      0.530935
     75 O13        -5.6180   -4.9780    2.4670 o         1 MOL     -0.579124
     76 H32        -6.5180   -1.3290    0.6270 hn        1 MOL      0.239002
     77 H33        -7.6320   -3.8830    1.5060 h1        1 MOL      0.113514
     78 H34        -6.9860   -2.4000    2.3810 h1        1 MOL      0.113514
     79 N8         -4.5080   -3.5730    1.2550 n         1 MOL     -0.099775
     80 C25        -3.2080   -4.2060    1.2290 c3        1 MOL     -0.298552
     81 C26        -2.0310   -3.1900    1.2860 c         1 MOL      0.661284
     82 O14        -2.2340   -2.0500    0.9490 o         1 MOL     -0.673548
     83 C27        -3.0280   -5.1620    0.0010 c3        1 MOL      0.439586
     84 C28        -3.9020   -6.4080    0.1150 c3        1 MOL     -0.483919
     85 O15        -3.3290   -4.5300   -1.1770 oh        1 MOL     -0.597521
     86 H35        -4.5620   -2.6500    0.8450 hn        1 MOL      0.179533
     87 H36        -3.0900   -4.8590    2.1040 h1        1 MOL      0.101489
     88 H37        -1.9640   -5.4080   -0.0510 h1        1 MOL     -0.030561
     89 H38        -3.6430   -3.6500   -0.9650 ho        1 MOL      0.419580
     90 H39        -3.7700   -7.1340   -0.6940 hc        1 MOL      0.127749
     91 H40        -3.7210   -7.0200    0.9990 hc        1 MOL      0.127749
     92 H41        -4.9580   -6.1710    0.1580 hc        1 MOL      0.127749
     93 N9         -0.8670   -3.7420    1.6450 n         1 MOL     -0.524594
     94 C29         0.3950   -2.8800    1.7460 c3        1 MOL      0.019890
     95 C30         1.5890   -3.5490    1.0560 c         1 MOL      0.400856
     96 O16         1.9180   -4.7110    1.2740 o         1 MOL     -0.532962
     97 C31         0.8110   -2.6650    3.2190 c3        1 MOL      0.336469
     98 C32        -0.4410   -2.3560    4.1170 c3        1 MOL     -0.056259
     99 C33         1.9820   -1.7080    3.5120 c3        1 MOL     -0.418978
    100 C34        -0.1090   -2.5290    5.6040 c3        1 MOL     -0.179384
    101 H42        -0.8410   -4.6580    2.0710 hn        1 MOL      0.305952
    102 H43         0.2950   -1.8920    1.2870 h1        1 MOL      0.067243
    103 H44         1.1350   -3.6590    3.5420 hc        1 MOL     -0.047362
    104 H45        -1.2290   -3.0810    3.9470 hc        1 MOL      0.049142
    105 H46        -0.7700   -1.3310    3.9470 hc        1 MOL      0.049142
    106 H47         1.7140   -0.6880    3.2330 hc        1 MOL      0.081873
    107 H48         2.3230   -1.8470    4.5400 hc        1 MOL      0.081873
    108 H49         2.8370   -2.0180    2.9170 hc        1 MOL      0.081873
    109 H50        -0.9320   -2.2760    6.2630 hc        1 MOL      0.042998
    110 H51        -0.1180   -3.6130    5.7340 hc        1 MOL      0.042998
    111 H52         0.8400   -2.1440    5.9720 hc        1 MOL      0.042998
    112 N10         2.3970   -2.7790    0.3480 n         1 MOL     -0.055066
    113 C35         3.6180   -3.1350   -0.4200 c3        1 MOL     -0.033743
    114 C36         4.9620   -2.9080    0.2170 c         1 MOL      0.358051
    115 O17         4.9960   -2.0290    1.0670 o         1 MOL     -0.324590
    116 C37         3.5420   -2.4010   -1.7990 c3        1 MOL      0.493821
    117 C38         2.6190   -3.1870   -2.6910 c3        1 MOL     -0.360155
    118 O18         3.0640   -1.0740   -1.7580 oh        1 MOL     -0.741166
    119 H53         2.0080   -1.8860    0.0860 hn        1 MOL      0.038152
    120 H54         3.5440   -4.2000   -0.6420 h1        1 MOL      0.035817
    121 H55         4.5380   -2.4310   -2.2430 h1        1 MOL     -0.027537
    122 H56         2.2630   -1.0960   -1.2320 ho        1 MOL      0.505977
    123 H57         3.2490   -3.9660   -3.1420 hc        1 MOL      0.081175
    124 H58         1.8580   -3.5780   -2.0170 hc        1 MOL      0.081175
    125 H59         2.0600   -2.5810   -3.3950 hc        1 MOL      0.081175
    126 N11         6.0960   -3.4320   -0.3540 n         1 MOL     -0.352010
    127 C39         7.4990   -3.0390    0.1010 c3        1 MOL     -0.197953
    128 C40         7.6470   -1.5200    0.0050 c         1 MOL      0.421442
    129 O19         8.2720   -0.9050    0.8780 o         1 MOL     -0.476766
    130 C41         8.5410   -3.7330   -0.7640 c3        1 MOL      0.432271
    131 C42         8.3930   -5.2490   -0.9450 c3        1 MOL     -0.489448
    132 O20         8.5920   -3.1120   -1.9960 oh        1 MOL     -0.643517
    133 H60         5.9660   -4.0160   -1.1660 hn        1 MOL      0.257422
    134 H61         7.5970   -3.2620    1.1620 h1        1 MOL      0.153828
    135 H62         9.5340   -3.5630   -0.3450 h1        1 MOL      0.012426
    136 H63         9.2270   -3.6570   -2.4630 ho        1 MOL      0.403048
    137 H64         9.2210   -5.7190   -1.4790 hc        1 MOL      0.132259
    138 H65         8.3900   -5.6320    0.0780 hc        1 MOL      0.132259
    139 H66         7.5190   -5.5140   -1.5430 hc        1 MOL      0.132259
    140 N12         7.1650   -0.9260   -1.0870 n         1 MOL     -0.163979
    141 C43         6.9920    0.5010   -1.4490 c3        1 MOL     -0.038409
    142 C44         6.3080    1.2810   -0.2560 c         1 MOL      0.290963
    143 O21         6.9050    2.0210    0.4980 o         1 MOL     -0.465287
    144 C45         6.2860    0.5750   -2.7240 c3        1 MOL     -0.205379
    145 C46         5.8110    1.9930   -3.0290 c3        1 MOL      0.155219
    146 C47         5.1610    2.1490   -4.4730 c3        1 MOL     -0.130072
    147 C48         6.1480    2.2930   -5.6240 c3        1 MOL      0.045784
    148 N13         7.3120    3.1930   -5.4450 n4        1 MOL     -0.141540
    149 H67         6.8200   -1.5490   -1.8060 hn        1 MOL      0.180038
    150 H68         7.9750    0.9500   -1.6090 h1        1 MOL      0.083547
    151 H69         5.4060   -0.0710   -2.7460 hc        1 MOL      0.067664
    152 H70         6.9410    0.3560   -3.5660 hc        1 MOL      0.067664
    153 H71         6.6500    2.6720   -2.8730 hc        1 MOL     -0.024579
    154 H72         5.0500    2.3030   -2.3150 hc        1 MOL     -0.024579
    155 H73         4.4690    2.9980   -4.4610 hc        1 MOL      0.085710
    156 H74         4.6560    1.2190   -4.6960 hc        1 MOL      0.085710
    157 H75         5.6260    2.5920   -6.5360 hx        1 MOL      0.061530
    158 H76         6.5230    1.2960   -5.8510 hx        1 MOL      0.061530
    159 H77         7.6290    3.5810   -6.3200 hn        1 MOL      0.236704
    160 H78         7.2760    3.9370   -4.7650 hn        1 MOL      0.236704
    161 H79         8.0920    2.5750   -5.2540 hn        1 MOL      0.236704
    162 N14         5.0090    1.0090    0.0050 n         1 MOL     -0.036533
    163 C49         4.1940    1.6370    1.0780 c3        1 MOL     -0.257247
    164 C50         4.7450    1.4420    2.4780 c         1 MOL      0.475658
    165 O22         4.4670    2.3120    3.2930 o         1 MOL     -0.570936
    166 C51         2.7400    1.1380    0.9890 c3        1 MOL      0.169725
    167 C52         1.9930    1.5600   -0.2580 c3        1 MOL     -0.224107
    168 C53         0.6970    0.7750   -0.4340 c         1 MOL      0.697625
    169 O23         0.7060   -0.4460   -0.6700 o         1 MOL     -0.718870
    170 O24        -0.4140    1.4000   -0.5360 o         1 MOL     -0.718870
    171 H80         4.5170    0.3900   -0.6300 hn        1 MOL      0.195583
    172 H81         4.1120    2.7180    0.9430 h1        1 MOL      0.091250
    173 H82         2.1950    1.4870    1.8720 hc        1 MOL      0.052469
    174 H83         2.7880    0.0650    1.1330 hc        1 MOL      0.052469
    175 H84         2.5590    1.3880   -1.1770 hc        1 MOL      0.036138
    176 H85         1.8250    2.6250   -0.1140 hc        1 MOL      0.036138
    177 N15         5.2060    0.2210    2.8130 n         1 MOL     -0.070647
    178 C54         5.6730   -0.0060    4.1980 c3        1 MOL     -0.265334
    179 H86         6.5950   -0.5870    4.1800 h1        1 MOL      0.108528
    180 H87         5.8590    0.9540    4.6810 h1        1 MOL      0.108528
    181 H88         4.9110   -0.5520    4.7540 h1        1 MOL      0.108528
    182 H89         5.1810   -0.4570    2.0580 hn        1 MOL      0.088985
    183 Ca1        -1.8810   -0.5760   -1.3390 Ca        1 MOL      1.770302
    184 O25        -0.4970   -0.3400   -3.4870 oh        1 MOL     -0.815562
    185 H90        -0.7090    0.5580   -3.7320 ho        1 MOL      0.383601
    186 H91         0.3710   -0.4840   -3.8630 ho        1 MOL      0.383601
    187 O26        -1.1630   -3.1100   -2.0050 oh        1 MOL     -0.815562
    188 H92        -0.7660   -3.2760   -2.8620 ho        1 MOL      0.383601
    189 H93        -1.8710   -3.7600   -1.9330 ho        1 MOL      0.383601
@<TRIPOS>BOND
     1    1    2 1   
     2    1    4 1   
     3    1    5 1   
     4    1    6 1   
     5    2    3 2   
     6    2    7 1   
     7    7    8 1   
     8    7   15 1   
     9    8    9 1   
    10    8   11 1   
    11    8   16 1   
    12    9   10 2   
    13    9   19 1   
    14   11   12 1   
    15   11   17 1   
    16   11   18 1   
    17   12   13 1   
    18   12   14 1   
    19   19   20 1   
    20   19   28 1   
    21   20   21 1   
    22   20   23 1   
    23   20   29 1   
    24   21   22 2   
    25   21   41 1   
    26   23   24 1   
    27   23   30 1   
    28   23   31 1   
    29   24   25 1   
    30   24   32 1   
    31   24   33 1   
    32   25   26 1   
    33   25   34 1   
    34   25   35 1   
    35   26   27 1   
    36   26   36 1   
    37   26   37 1   
    38   27   38 1   
    39   27   39 1   
    40   27   40 1   
    41   41   42 1   
    42   41   49 1   
    43   42   43 1   
    44   42   45 1   
    45   42   50 1   
    46   43   44 2   
    47   43   53 1   
    48   45   46 1   
    49   45   51 1   
    50   45   52 1   
    51   46   47 1   
    52   46   48 1   
    53   53   54 1   
    54   53   57 1   
    55   54   55 1   
    56   54   58 1   
    57   54   59 1   
    58   55   56 2   
    59   55   60 1   
    60   60   61 1   
    61   60   68 1   
    62   61   62 1   
    63   61   64 1   
    64   61   69 1   
    65   62   63 2   
    66   62   72 1   
    67   64   65 1   
    68   64   70 1   
    69   64   71 1   
    70   65   66 1   
    71   65   67 1   
    72   72   73 1   
    73   72   76 1   
    74   73   74 1   
    75   73   77 1   
    76   73   78 1   
    77   74   75 2   
    78   74   79 1   
    79   79   80 1   
    80   79   86 1   
    81   80   81 1   
    82   80   83 1   
    83   80   87 1   
    84   81   82 2   
    85   81   93 1   
    86   83   84 1   
    87   83   85 1   
    88   83   88 1   
    89   84   90 1   
    90   84   91 1   
    91   84   92 1   
    92   85   89 1   
    93   93   94 1   
    94   93  101 1   
    95   94   95 1   
    96   94   97 1   
    97   94  102 1   
    98   95   96 2   
    99   95  112 1   
   100   97   98 1   
   101   97   99 1   
   102   97  103 1   
   103   98  100 1   
   104   98  104 1   
   105   98  105 1   
   106   99  106 1   
   107   99  107 1   
   108   99  108 1   
   109  100  109 1   
   110  100  110 1   
   111  100  111 1   
   112  112  113 1   
   113  112  119 1   
   114  113  114 1   
   115  113  116 1   
   116  113  120 1   
   117  114  115 2   
   118  114  126 1   
   119  116  117 1   
   120  116  118 1   
   121  116  121 1   
   122  117  123 1   
   123  117  124 1   
   124  117  125 1   
   125  118  122 1   
   126  126  127 1   
   127  126  133 1   
   128  127  128 1   
   129  127  130 1   
   130  127  134 1   
   131  128  129 2   
   132  128  140 1   
   133  130  131 1   
   134  130  132 1   
   135  130  135 1   
   136  131  137 1   
   137  131  138 1   
   138  131  139 1   
   139  132  136 1   
   140  140  141 1   
   141  140  149 1   
   142  141  142 1   
   143  141  144 1   
   144  141  150 1   
   145  142  143 2   
   146  142  162 1   
   147  144  145 1   
   148  144  151 1   
   149  144  152 1   
   150  145  146 1   
   151  145  153 1   
   152  145  154 1   
   153  146  147 1   
   154  146  155 1   
   155  146  156 1   
   156  147  148 1   
   157  147  157 1   
   158  147  158 1   
   159  148  159 1   
   160  148  160 1   
   161  148  161 1   
   162  162  163 1   
   163  162  171 1   
   164  163  164 1   
   165  163  166 1   
   166  163  172 1   
   167  164  165 2   
   168  164  177 1   
   169  166  167 1   
   170  166  173 1   
   171  166  174 1   
   172  167  168 1   
   173  167  175 1   
   174  167  176 1   
   175  168  169 1   
   176  168  170 1   
   177  177  178 1   
   178  177  182 1   
   179  178  179 1   
   180  178  180 1   
   181  178  181 1   
   182  184  185 1   
   183  184  186 1   
   184  187  188 1   
   185  187  189 1   
@<TRIPOS>SUBSTRUCTURE
     1 MOL         1 TEMP              0 ****  ****    0 ROOT
