@<TRIPOS>MOLECULE
MOL
  179   176     1     0     0
SMALL
resp


@<TRIPOS>ATOM
      1 C1         -2.2480   -3.1150    6.1220 c3        1 MOL     -0.394502
      2 C2         -1.9660   -2.7650    4.6820 c         1 MOL      0.709955
      3 O1         -2.7950   -2.1820    3.9600 o         1 MOL     -0.579781
      4 H1         -2.8730   -4.0060    6.1630 hc        1 MOL      0.101553
      5 H2         -1.3080   -3.3060    6.6400 hc        1 MOL      0.101553
      6 H3         -2.7660   -2.2850    6.6030 hc        1 MOL      0.101553
      7 N1         -0.7910   -3.1210    4.2130 n         1 MOL     -0.515063
      8 C3         -0.3800   -3.0310    2.8420 c3        1 MOL      0.136294
      9 C4         -0.4500   -4.3840    2.0770 c         1 MOL      0.483256
     10 O2         -0.3630   -5.4670    2.6440 o         1 MOL     -0.562557
     11 C5          1.0380   -2.4430    2.6850 c3        1 MOL      0.174063
     12 C6          1.2870   -1.8780    1.2910 c         1 MOL      0.552972
     13 O3          0.3350   -1.7560    0.4640 o         1 MOL     -0.730751
     14 O4          2.3970   -1.6390    0.8870 o         1 MOL     -0.730751
     15 H4         -0.1040   -3.4010    4.9050 hn        1 MOL      0.280530
     16 H5         -1.0790   -2.3900    2.3080 h1        1 MOL      0.008456
     17 H6          1.8050   -3.1570    2.9930 hc        1 MOL     -0.036085
     18 H7          0.9780   -1.6190    3.3980 hc        1 MOL     -0.036085
     19 N2         -0.7130   -4.3760    0.7820 n         1 MOL     -0.266418
     20 C7         -0.9440   -5.5190   -0.0720 c3        1 MOL      0.022492
     21 C8          0.4080   -6.0680   -0.6160 c         1 MOL      0.414375
     22 O5          0.4620   -7.2510   -0.9430 o         1 MOL     -0.555104
     23 C9         -1.8740   -5.1760   -1.3020 c3        1 MOL     -0.141062
     24 C10        -3.2690   -4.5610   -1.0200 c3        1 MOL      0.014323
     25 C11        -4.2820   -5.6550   -0.5500 c3        1 MOL     -0.242801
     26 C12        -4.6140   -6.5870   -1.7140 c3        1 MOL      0.021287
     27 N3         -5.2600   -6.0050   -2.8360 n4        1 MOL     -0.288175
     28 H8         -0.7220   -3.4800    0.3090 hn        1 MOL      0.283680
     29 H9         -1.4400   -6.2970    0.5120 h1        1 MOL      0.086265
     30 H10        -2.0210   -6.0260   -1.9630 hc        1 MOL      0.037938
     31 H11        -1.3810   -4.3520   -1.8120 hc        1 MOL      0.037938
     32 H12        -3.6880   -4.0930   -1.9040 hc        1 MOL      0.067375
     33 H13        -3.1830   -3.7520   -0.2890 hc        1 MOL      0.067375
     34 H14        -5.2130   -5.2790   -0.1230 hc        1 MOL      0.115504
     35 H15        -3.8700   -6.2870    0.2480 hc        1 MOL      0.115504
     36 H16        -5.2420   -7.3890   -1.3160 hx        1 MOL      0.095332
     37 H17        -3.7290   -7.1140   -2.0370 hx        1 MOL      0.095332
     38 H18        -6.0110   -5.3770   -2.5660 hn        1 MOL      0.308996
     39 H19        -4.6700   -5.3780   -3.3620 hn        1 MOL      0.308996
     40 H20        -5.6090   -6.6770   -3.4980 hn        1 MOL      0.308996
     41 N4          1.4760   -5.2660   -0.7820 n         1 MOL     -0.186862
     42 C13         2.7610   -5.5870   -1.3410 c3        1 MOL      0.062621
     43 C14         3.8190   -5.1670   -0.3010 c         1 MOL      0.299862
     44 O6          4.9790   -5.6070   -0.4380 o         1 MOL     -0.496803
     45 C15         2.9610   -4.8420   -2.6540 c3        1 MOL     -0.323702
     46 C16         2.5510   -3.3640   -2.7380 c         1 MOL      0.719090
     47 O7          2.8610   -2.8740   -3.8090 o         1 MOL     -0.696737
     48 O8          2.1900   -2.7830   -1.7110 o         1 MOL     -0.696737
     49 H21         1.2460   -4.2850   -0.6820 hn        1 MOL      0.223333
     50 H22         2.8340   -6.6570   -1.4920 h1        1 MOL      0.110796
     51 H23         2.4820   -5.5060   -3.3790 hc        1 MOL      0.105111
     52 H24         4.0150   -4.7630   -2.9260 hc        1 MOL      0.105111
     53 N5          3.5010   -4.2720    0.6750 n         1 MOL      0.002778
     54 C17         4.5210   -3.8850    1.7250 c3        1 MOL     -0.139841
     55 C18         5.6420   -3.1620    1.0410 c         1 MOL      0.510855
     56 O9          6.8180   -3.3570    1.3020 o         1 MOL     -0.574498
     57 H25         2.5240   -4.0600    0.7620 hn        1 MOL     -0.028082
     58 H26         4.9150   -4.7990    2.1580 h1        1 MOL      0.087886
     59 H27         4.0760   -3.2100    2.4610 h1        1 MOL      0.087886
     60 N6          5.2590   -2.2150    0.2090 n         1 MOL     -0.133144
     61 C19         6.1340   -1.4460   -0.7060 c3        1 MOL     -0.229904
     62 C20         6.6890   -0.1290   -0.2370 c         1 MOL      0.465300
     63 O10         7.3970    0.4790   -1.0200 o         1 MOL     -0.505164
     64 C21         5.5880   -1.3210   -2.1170 c3        1 MOL      0.005453
     65 C22         4.7960   -0.0400   -2.3450 c         1 MOL      0.570697
     66 N7          4.9050    0.6800   -3.3780 n         1 MOL     -0.741466
     67 O11         4.0060    0.2530   -1.4620 o         1 MOL     -0.527491
     68 H28         4.2740   -2.0180    0.2040 hn        1 MOL      0.195551
     69 H29         7.0230   -2.0650   -0.8210 h1        1 MOL      0.177190
     70 H30         4.8860   -2.1190   -2.3510 hc        1 MOL      0.042867
     71 H31         6.3100   -1.3730   -2.9410 hc        1 MOL      0.042867
     72 H32         5.5640    0.3760   -4.0810 hn        1 MOL      0.374983
     73 H33         4.3390    1.5130   -3.4170 hn        1 MOL      0.374983
     74 N8          6.4360    0.2630    1.0370 n         1 MOL     -0.271806
     75 C23         6.8160    1.5840    1.4630 c3        1 MOL     -0.236291
     76 C24         5.7370    2.6930    1.5940 c         1 MOL      0.513424
     77 O12         6.0900    3.7430    2.1570 o         1 MOL     -0.522083
     78 H34         5.8020   -0.2910    1.6080 hn        1 MOL      0.248376
     79 H35         7.4190    1.9920    0.6510 h1        1 MOL      0.137609
     80 H36         7.3870    1.4530    2.3850 h1        1 MOL      0.137609
     81 N9          4.5750    2.4360    0.9980 n         1 MOL     -0.290331
     82 C25         3.3870    3.2950    0.9280 c3        1 MOL     -0.034815
     83 C26         2.0540    2.5690    0.9160 c         1 MOL      0.528401
     84 O13         1.9680    1.3840    0.4630 o         1 MOL     -0.576179
     85 C27         3.5090    4.3380   -0.2660 c3        1 MOL      0.158941
     86 C28         4.7790    5.2450   -0.3280 ca        1 MOL     -0.015124
     87 C29         5.8380    4.8700   -1.1410 ca        1 MOL     -0.228220
     88 C30         4.7580    6.4890    0.3840 ca        1 MOL     -0.228220
     89 C31         6.8570    5.8240   -1.3710 ca        1 MOL     -0.119788
     90 C32         5.8620    7.3380    0.2660 ca        1 MOL     -0.119788
     91 C33         6.8740    7.0630   -0.6350 ca        1 MOL      0.239740
     92 O14         7.8570    7.9070   -0.8670 oh        1 MOL     -0.473614
     93 H37         4.4840    1.5450    0.5420 hn        1 MOL      0.209560
     94 H38         3.4240    3.9610    1.7760 h1        1 MOL      0.065791
     95 H39         2.6620    5.0140   -0.2520 hc        1 MOL     -0.028066
     96 H40         3.4800    3.8740   -1.2460 hc        1 MOL     -0.028066
     97 H41         5.8210    3.9220   -1.6530 ha        1 MOL      0.154329
     98 H42         3.9430    6.7620    1.0400 ha        1 MOL      0.154329
     99 H43         7.5640    5.6000   -2.1470 ha        1 MOL      0.106700
    100 H44         5.7780    8.2450    0.8580 ha        1 MOL      0.106700
    101 H45         7.7930    8.7660   -0.4440 ho        1 MOL      0.376138
    102 N10         1.0450    3.2360    1.5120 n         1 MOL     -0.392636
    103 C34        -0.4130    2.8550    1.6640 c3        1 MOL     -0.114209
    104 C35        -1.3630    3.8350    1.0020 c         1 MOL      0.517156
    105 O15        -1.4330    5.0200    1.4240 o         1 MOL     -0.551798
    106 C36        -0.7790    2.5350    3.1510 c3        1 MOL      0.157083
    107 C37         0.2500    1.4840    3.7280 c3        1 MOL      0.060798
    108 C38        -2.2260    1.9500    3.2610 c3        1 MOL     -0.342092
    109 C39         0.1150    1.1580    5.2310 c3        1 MOL     -0.183013
    110 H46         1.2650    4.1330    1.9170 hn        1 MOL      0.275920
    111 H47        -0.5390    1.9240    1.1100 h1        1 MOL      0.047692
    112 H48        -0.8130    3.4310    3.7730 hc        1 MOL      0.026005
    113 H49         1.2800    1.8270    3.7040 hc        1 MOL      0.015929
    114 H50         0.0930    0.5160    3.2400 hc        1 MOL      0.015929
    115 H51        -3.0430    2.6560    3.0740 hc        1 MOL      0.091774
    116 H52        -2.2120    1.1220    2.5540 hc        1 MOL      0.091774
    117 H53        -2.3600    1.6040    4.2910 hc        1 MOL      0.091774
    118 H54         0.5410    1.9590    5.8270 hc        1 MOL      0.038891
    119 H55        -0.9290    1.2290    5.5310 hc        1 MOL      0.038891
    120 H56         0.5060    0.1680    5.4380 hc        1 MOL      0.038891
    121 N11        -2.1840    3.3670    0.0670 n         1 MOL     -0.334020
    122 C40        -3.1730    4.2500   -0.6320 c3        1 MOL     -0.063391
    123 C41        -4.6050    4.0770   -0.1070 c         1 MOL      0.534095
    124 O16        -5.0600    3.0460    0.4850 o         1 MOL     -0.483749
    125 C42        -3.1330    4.0360   -2.1410 c3        1 MOL     -0.099479
    126 O17        -3.4820    2.6870   -2.4790 oh        1 MOL     -0.485658
    127 H57        -2.0390    2.4290   -0.2850 hn        1 MOL      0.435533
    128 H58        -2.8800    5.2850   -0.4770 h1        1 MOL      0.082895
    129 H59        -2.1290    4.2690   -2.4900 h1        1 MOL      0.101807
    130 H60        -3.7680    4.7540   -2.6570 h1        1 MOL      0.101807
    131 H61        -2.6780    2.1810   -2.3070 ho        1 MOL      0.333332
    132 N12        -5.4460    5.0860   -0.3600 n         1 MOL     -0.501826
    133 C43        -6.9460    5.0040   -0.0490 c3        1 MOL      0.218844
    134 C44        -7.6420    3.6870   -0.5650 c         1 MOL      0.374062
    135 O18        -8.5280    3.2720    0.2010 o         1 MOL     -0.496379
    136 C45        -7.7470    6.2320   -0.5210 c3        1 MOL     -0.401330
    137 H62        -5.0050    5.9110   -0.7340 hn        1 MOL      0.297840
    138 H63        -6.9940    5.0160    1.0350 h1        1 MOL      0.085802
    139 H64        -7.5480    6.3320   -1.5880 hc        1 MOL      0.121280
    140 H65        -8.7920    6.0770   -0.2410 hc        1 MOL      0.121280
    141 H66        -7.3780    7.0870    0.0350 hc        1 MOL      0.121280
    142 N13        -7.2350    2.9790   -1.6620 n         1 MOL     -0.299276
    143 C46        -7.8570    1.7080   -2.1420 c3        1 MOL      0.126706
    144 C47        -7.2490    0.5190   -1.4290 c         1 MOL      0.374194
    145 O19        -7.9580   -0.3460   -0.9610 o         1 MOL     -0.506652
    146 C48        -7.7250    1.6550   -3.6370 c3        1 MOL     -0.249167
    147 H67        -6.6630    3.4480   -2.3590 hn        1 MOL      0.255677
    148 H68        -8.9300    1.7420   -1.9470 h1        1 MOL      0.090697
    149 H69        -8.2510    2.5380   -4.0070 hc        1 MOL      0.067387
    150 H70        -6.7050    1.7180   -4.0200 hc        1 MOL      0.067387
    151 H71        -8.2200    0.7530   -3.9890 hc        1 MOL      0.067387
    152 N14        -5.9420    0.4780   -1.2110 n         1 MOL     -0.100245
    153 C49        -5.2770   -0.5460   -0.3890 c3        1 MOL     -0.222559
    154 C50        -5.7630   -0.6310    0.9850 c         1 MOL      0.458743
    155 O20        -5.9450   -1.6830    1.6280 o         1 MOL     -0.537162
    156 C51        -3.7480   -0.2400   -0.3680 c3        1 MOL     -0.110349
    157 C52        -3.2580   -0.6090   -1.7400 c3        1 MOL      0.032710
    158 C53        -1.6900   -0.3610   -1.8140 c         1 MOL      0.630147
    159 O21        -1.1850    0.7290   -1.3880 o         1 MOL     -0.699039
    160 O22        -0.9220   -1.1980   -2.3480 o         1 MOL     -0.699039
    161 H72        -5.3400    1.2480   -1.4580 hn        1 MOL      0.152216
    162 H73        -5.3790   -1.5030   -0.9120 h1        1 MOL      0.098050
    163 H74        -3.2220   -0.9420    0.2900 hc        1 MOL      0.045866
    164 H75        -3.5260    0.8110   -0.1890 hc        1 MOL      0.045866
    165 H76        -3.8120    0.0180   -2.4570 hc        1 MOL     -0.040404
    166 H77        -3.3910   -1.6660   -1.9520 hc        1 MOL     -0.040404
    167 N15        -6.0890    0.5200    1.6060 n         1 MOL     -0.098749
    168 C54        -6.6990    0.7350    2.9620 c3        1 MOL     -0.271789
    169 H78        -6.6530   -0.1930    3.5320 h1        1 MOL      0.115132
    170 H79        -6.1470    1.5130    3.4900 h1        1 MOL      0.115132
    171 H80        -7.7390    1.0400    2.8480 h1        1 MOL      0.115132
    172 H81        -5.9120    1.3610    1.0790 hn        1 MOL      0.173233
    173 Ca1         1.3560   -0.2870   -1.3490 Ca        1 MOL      1.753710
    174 O23         2.0450   -0.2450   -3.8970 oh        1 MOL     -0.901237
    175 H82         2.3330   -1.1190   -4.1560 ho        1 MOL      0.420089
    176 H83         2.0560    0.2590   -4.7100 ho        1 MOL      0.420089
    177 O24         1.1350    2.3230   -2.2290 oh        1 MOL     -0.901237
    178 H84         0.3780    2.9020   -2.2390 ho        1 MOL      0.420089
    179 H85         1.5430    2.4280   -3.0920 ho        1 MOL      0.420089
@<TRIPOS>BOND
     1    1    2 1   
     2    1    4 1   
     3    1    5 1   
     4    1    6 1   
     5    2    3 2   
     6    2    7 1   
     7    7    8 1   
     8    7   15 1   
     9    8    9 1   
    10    8   11 1   
    11    8   16 1   
    12    9   10 2   
    13    9   19 1   
    14   11   12 1   
    15   11   17 1   
    16   11   18 1   
    17   12   13 1   
    18   12   14 1   
    19   19   20 1   
    20   19   28 1   
    21   20   21 1   
    22   20   23 1   
    23   20   29 1   
    24   21   22 2   
    25   21   41 1   
    26   23   24 1   
    27   23   30 1   
    28   23   31 1   
    29   24   25 1   
    30   24   32 1   
    31   24   33 1   
    32   25   26 1   
    33   25   34 1   
    34   25   35 1   
    35   26   27 1   
    36   26   36 1   
    37   26   37 1   
    38   27   38 1   
    39   27   39 1   
    40   27   40 1   
    41   41   42 1   
    42   41   49 1   
    43   42   43 1   
    44   42   45 1   
    45   42   50 1   
    46   43   44 2   
    47   43   53 1   
    48   45   46 1   
    49   45   51 1   
    50   45   52 1   
    51   46   47 1   
    52   46   48 1   
    53   53   54 1   
    54   53   57 1   
    55   54   55 1   
    56   54   58 1   
    57   54   59 1   
    58   55   56 2   
    59   55   60 1   
    60   60   61 1   
    61   60   68 1   
    62   61   62 1   
    63   61   64 1   
    64   61   69 1   
    65   62   63 2   
    66   62   74 1   
    67   64   65 1   
    68   64   70 1   
    69   64   71 1   
    70   65   66 1   
    71   65   67 2   
    72   66   72 1   
    73   66   73 1   
    74   74   75 1   
    75   74   78 1   
    76   75   76 1   
    77   75   79 1   
    78   75   80 1   
    79   76   77 2   
    80   76   81 1   
    81   81   82 1   
    82   81   93 1   
    83   82   83 1   
    84   82   85 1   
    85   82   94 1   
    86   83   84 2   
    87   83  102 1   
    88   85   86 1   
    89   85   95 1   
    90   85   96 1   
    91   86   87 ar  
    92   86   88 ar  
    93   87   89 ar  
    94   87   97 1   
    95   88   90 ar  
    96   88   98 1   
    97   89   91 ar  
    98   89   99 1   
    99   90   91 ar  
   100   90  100 1   
   101   91   92 1   
   102   92  101 1   
   103  102  103 1   
   104  102  110 1   
   105  103  104 1   
   106  103  106 1   
   107  103  111 1   
   108  104  105 2   
   109  104  121 1   
   110  106  107 1   
   111  106  108 1   
   112  106  112 1   
   113  107  109 1   
   114  107  113 1   
   115  107  114 1   
   116  108  115 1   
   117  108  116 1   
   118  108  117 1   
   119  109  118 1   
   120  109  119 1   
   121  109  120 1   
   122  121  122 1   
   123  121  127 1   
   124  122  123 1   
   125  122  125 1   
   126  122  128 1   
   127  123  124 2   
   128  123  132 1   
   129  125  126 1   
   130  125  129 1   
   131  125  130 1   
   132  126  131 1   
   133  132  133 1   
   134  132  137 1   
   135  133  134 1   
   136  133  136 1   
   137  133  138 1   
   138  134  135 2   
   139  134  142 1   
   140  136  139 1   
   141  136  140 1   
   142  136  141 1   
   143  142  143 1   
   144  142  147 1   
   145  143  144 1   
   146  143  146 1   
   147  143  148 1   
   148  144  145 2   
   149  144  152 1   
   150  146  149 1   
   151  146  150 1   
   152  146  151 1   
   153  152  153 1   
   154  152  161 1   
   155  153  154 1   
   156  153  156 1   
   157  153  162 1   
   158  154  155 2   
   159  154  167 1   
   160  156  157 1   
   161  156  163 1   
   162  156  164 1   
   163  157  158 1   
   164  157  165 1   
   165  157  166 1   
   166  158  159 1   
   167  158  160 1   
   168  167  168 1   
   169  167  172 1   
   170  168  169 1   
   171  168  170 1   
   172  168  171 1   
   173  174  175 1   
   174  174  176 1   
   175  177  178 1   
   176  177  179 1   
@<TRIPOS>SUBSTRUCTURE
     1 MOL         1 TEMP              0 ****  ****    0 ROOT
