@<TRIPOS>MOLECULE
MOL
  189   185     1     0     0
SMALL
resp


@<TRIPOS>ATOM
      1 C1          0.2480    1.4320    6.3780 c3        1 MOL     -0.410940
      2 C2         -0.2240    1.3420    4.8730 c         1 MOL      0.716286
      3 O1          0.5780    1.6590    3.9880 o         1 MOL     -0.628881
      4 H1          0.5930    2.4430    6.5890 hc        1 MOL      0.114037
      5 H2         -0.5870    1.1870    7.0360 hc        1 MOL      0.114037
      6 H3          1.0630    0.7280    6.5460 hc        1 MOL      0.114037
      7 N1         -1.4160    0.9220    4.5450 n         1 MOL     -0.591902
      8 C3         -1.9660    1.0090    3.1760 c3        1 MOL      0.149372
      9 C4         -2.2830    2.5050    2.9070 c         1 MOL      0.467522
     10 O2         -3.0100    3.0950    3.7680 o         1 MOL     -0.577710
     11 C5         -3.1620   -0.0220    2.9910 c3        1 MOL     -0.196771
     12 C6         -3.7850    0.3100    1.5990 c         1 MOL      0.746527
     13 O3         -3.0390    0.5150    0.5930 o         1 MOL     -0.706278
     14 O4         -5.0730    0.3190    1.4650 o         1 MOL     -0.706278
     15 H4         -2.0280    0.6860    5.3150 hn        1 MOL      0.336778
     16 H5         -1.1840    0.7490    2.4700 h1        1 MOL      0.032210
     17 H6         -3.7440    0.1530    3.8840 hc        1 MOL      0.057547
     18 H7         -2.8070   -1.0410    3.1130 hc        1 MOL      0.057547
     19 N2         -2.0430    3.0500    1.7180 n         1 MOL      0.076905
     20 C7         -2.2740    4.4930    1.3610 c3        1 MOL     -0.200583
     21 C8         -3.3650    4.6710    0.2750 c         1 MOL      0.430208
     22 O5         -3.6240    5.8120   -0.1080 o         1 MOL     -0.558503
     23 C9         -0.9890    5.0750    0.7620 c3        1 MOL      0.078583
     24 C10         0.2090    4.9570    1.6530 c3        1 MOL      0.006366
     25 C11         1.5760    5.2020    1.0910 c3        1 MOL     -0.074954
     26 C12         1.8920    6.6260    0.6680 c3        1 MOL     -0.035149
     27 N3          3.0720    6.5790   -0.1580 n4        1 MOL     -0.281780
     28 H8         -1.6520    2.4720    0.9910 hn        1 MOL     -0.032933
     29 H9         -2.5610    5.0530    2.2430 h1        1 MOL      0.118801
     30 H10        -1.0580    6.1350    0.4970 hc        1 MOL      0.014967
     31 H11        -0.7810    4.5630   -0.1750 hc        1 MOL      0.014967
     32 H12         0.2600    3.9590    2.0770 hc        1 MOL      0.022593
     33 H13         0.0160    5.6830    2.4500 hc        1 MOL      0.022593
     34 H14         1.7030    4.4700    0.2940 hc        1 MOL      0.058037
     35 H15         2.3890    4.9690    1.7710 hc        1 MOL      0.058037
     36 H16         2.0420    7.3230    1.5010 hx        1 MOL      0.105986
     37 H17         1.0270    6.9950    0.1060 hx        1 MOL      0.105986
     38 H18         3.4600    7.5100   -0.1990 hn        1 MOL      0.298920
     39 H19         3.8310    6.0640    0.2780 hn        1 MOL      0.298920
     40 H20         3.0330    6.3290   -1.1320 hn        1 MOL      0.298920
     41 N4         -3.9260    3.6030   -0.2850 n         1 MOL      0.130134
     42 C13        -4.8810    3.5310   -1.3580 c3        1 MOL     -0.328904
     43 C14        -6.3410    3.1490   -0.9730 c         1 MOL      0.533455
     44 O6         -7.2510    3.4120   -1.7680 o         1 MOL     -0.502931
     45 C15        -4.3580    2.5980   -2.4530 c3        1 MOL      0.108909
     46 C16        -2.9050    2.8930   -2.9240 c         1 MOL      0.637677
     47 O7         -2.0260    2.2380   -2.2110 o         1 MOL     -0.690627
     48 O8         -2.6420    3.6450   -3.9310 o         1 MOL     -0.690627
     49 H21        -3.6670    2.7410    0.1760 hn        1 MOL     -0.122137
     50 H22        -4.9300    4.5410   -1.7620 h1        1 MOL      0.139600
     51 H23        -4.9380    2.4730   -3.3650 hc        1 MOL     -0.017253
     52 H24        -4.3850    1.5940   -2.0280 hc        1 MOL     -0.017253
     53 N5         -6.4110    2.4700    0.1700 n         1 MOL     -0.459478
     54 C17        -7.7070    1.7430    0.4770 c3        1 MOL     -0.077169
     55 C18        -7.8560    0.4730   -0.3730 c         1 MOL      0.391854
     56 O9         -8.9490    0.1470   -0.7510 o         1 MOL     -0.543900
     57 H25        -5.6360    2.3120    0.7900 hn        1 MOL      0.330721
     58 H26        -8.5230    2.4410    0.3050 h1        1 MOL      0.099485
     59 H27        -7.7100    1.4580    1.5240 h1        1 MOL      0.099485
     60 N6         -6.7850   -0.1690   -0.8150 n         1 MOL     -0.110397
     61 C19        -6.7860   -1.4070   -1.5440 c3        1 MOL     -0.057271
     62 C20        -6.5600   -2.6410   -0.6750 c         1 MOL      0.383406
     63 O10        -6.7010   -3.7700   -1.1630 o         1 MOL     -0.496250
     64 C21        -5.7720   -1.3450   -2.7020 c3        1 MOL     -0.280335
     65 C22        -4.2880   -1.2250   -2.4180 c         1 MOL      0.646021
     66 O11        -3.8930   -1.6820   -1.3330 o         1 MOL     -0.707855
     67 O12        -3.5180   -0.6090   -3.1980 o         1 MOL     -0.707855
     68 H28        -5.9060    0.1840   -0.4720 hn        1 MOL      0.337688
     69 H29        -7.7730   -1.5600   -1.9880 h1        1 MOL      0.119197
     70 H30        -6.0970   -0.5800   -3.4030 hc        1 MOL      0.097389
     71 H31        -5.9220   -2.2960   -3.2060 hc        1 MOL      0.097389
     72 N7         -6.2120   -2.4440    0.6220 n         1 MOL     -0.237830
     73 C23        -5.9620   -3.5400    1.5460 c3        1 MOL     -0.147492
     74 C24        -4.6720   -4.3320    1.2740 c         1 MOL      0.528109
     75 O13        -4.5570   -5.4750    1.7400 o         1 MOL     -0.590798
     76 H32        -6.1170   -1.4860    0.9130 hn        1 MOL      0.203300
     77 H33        -6.8130   -4.2280    1.4420 h1        1 MOL      0.098257
     78 H34        -5.9850   -3.1500    2.5690 h1        1 MOL      0.098257
     79 N8         -3.7620   -3.8300    0.4750 n         1 MOL     -0.176391
     80 C25        -2.4720   -4.5360    0.1980 c3        1 MOL     -0.268206
     81 C26        -1.3030   -3.5390    0.3540 c         1 MOL      0.571844
     82 O14        -1.3430   -2.3600   -0.0090 o         1 MOL     -0.634138
     83 C27        -2.4740   -5.2500   -1.1970 c3        1 MOL      0.643580
     84 C28        -2.9910   -6.6780   -1.0060 c3        1 MOL     -0.261049
     85 O15        -3.2510   -4.5440   -2.0850 oh        1 MOL     -0.710109
     86 H35        -3.9080   -2.9220    0.0500 hn        1 MOL      0.187620
     87 H36        -2.2260   -5.2880    0.9420 h1        1 MOL      0.112999
     88 H37        -1.4730   -5.4720   -1.5600 h1        1 MOL     -0.098674
     89 H38        -3.1370   -3.6350   -1.8100 ho        1 MOL      0.541496
     90 H39        -2.3420   -7.1530   -0.2660 hc        1 MOL      0.057356
     91 H40        -4.0110   -6.5920   -0.6180 hc        1 MOL      0.057356
     92 H41        -2.9060   -7.2900   -1.9000 hc        1 MOL      0.057356
     93 N9         -0.1960   -4.0200    0.9520 n         1 MOL     -0.520579
     94 C29         1.0380   -3.3160    1.2620 c3        1 MOL     -0.004148
     95 C30         2.1300   -3.7000    0.2960 c         1 MOL      0.497249
     96 O16         2.4460   -4.8260    0.0830 o         1 MOL     -0.542998
     97 C31         1.4640   -3.6040    2.8100 c3        1 MOL      0.125684
     98 C32         0.4110   -2.9490    3.7360 c3        1 MOL      0.141882
     99 C33         2.8550   -3.0490    3.0750 c3        1 MOL     -0.441497
    100 C34         0.5630   -3.2500    5.2240 c3        1 MOL     -0.200420
    101 H42        -0.2230   -4.9570    1.3310 hn        1 MOL      0.295440
    102 H43         0.8380   -2.2430    1.2610 h1        1 MOL      0.120710
    103 H44         1.5380   -4.6780    2.9720 hc        1 MOL      0.018270
    104 H45        -0.5280   -3.3710    3.3780 hc        1 MOL     -0.016294
    105 H46         0.3960   -1.8810    3.5440 hc        1 MOL     -0.016294
    106 H47         3.1940   -3.3570    4.0670 hc        1 MOL      0.091878
    107 H48         3.4480   -3.3600    2.2120 hc        1 MOL      0.091878
    108 H49         2.8980   -1.9700    3.0270 hc        1 MOL      0.091878
    109 H50        -0.3360   -2.9040    5.7310 hc        1 MOL      0.049548
    110 H51         0.5900   -4.3400    5.3120 hc        1 MOL      0.049548
    111 H52         1.4250   -2.7540    5.6800 hc        1 MOL      0.049548
    112 N10         2.7530   -2.7070   -0.3450 n         1 MOL     -0.097453
    113 C35         3.8020   -2.7580   -1.4140 c3        1 MOL     -0.005506
    114 C36         5.1830   -2.3740   -0.7930 c         1 MOL      0.372811
    115 O17         5.2430   -1.8860    0.3450 o         1 MOL     -0.388603
    116 C37         3.3510   -1.7550   -2.6080 c3        1 MOL      0.261978
    117 C38         2.1400   -2.3000   -3.4180 c3        1 MOL     -0.433566
    118 O18         3.0940   -0.5500   -1.9720 oh        1 MOL     -0.745081
    119 H53         2.5570   -1.7660   -0.0410 hn        1 MOL      0.123293
    120 H54         3.9100   -3.7620   -1.8210 h1        1 MOL      0.065883
    121 H55         4.1910   -1.6000   -3.2860 h1        1 MOL      0.027850
    122 H56         2.2810   -0.4480   -1.4540 ho        1 MOL      0.511120
    123 H57         1.8420   -1.7370   -4.2980 hc        1 MOL      0.115060
    124 H58         2.3500   -3.3370   -3.6700 hc        1 MOL      0.115060
    125 H59         1.2590   -2.3180   -2.7750 hc        1 MOL      0.115060
    126 N11         6.2880   -2.3580   -1.4610 n         1 MOL     -0.312242
    127 C39         7.6850   -1.7970   -1.0640 c3        1 MOL     -0.035522
    128 C40         7.7060   -0.4270   -0.5430 c         1 MOL      0.277249
    129 O19         8.2200   -0.2020    0.5880 o         1 MOL     -0.464115
    130 C41         8.6150   -1.7430   -2.3110 c3        1 MOL      0.154442
    131 C42         9.0720   -3.1350   -2.6150 c3        1 MOL     -0.183226
    132 O20         7.8600   -1.4680   -3.4430 oh        1 MOL     -0.570278
    133 H60         6.2830   -2.7680   -2.3900 hn        1 MOL      0.252894
    134 H61         8.0970   -2.5210   -0.3640 h1        1 MOL      0.149653
    135 H62         9.4970   -1.1130   -2.1950 h1        1 MOL      0.095580
    136 H63         8.3090   -0.7340   -3.8610 ho        1 MOL      0.397871
    137 H64         9.5250   -3.2300   -3.6040 hc        1 MOL      0.061734
    138 H65         9.7710   -3.5940   -1.9220 hc        1 MOL      0.061734
    139 H66         8.2840   -3.8840   -2.5400 hc        1 MOL      0.061734
    140 N12         6.9260    0.4800   -1.1330 n         1 MOL     -0.150267
    141 C43         6.8030    1.9110   -0.7480 c3        1 MOL     -0.089407
    142 C44         6.0910    2.1260    0.5440 c         1 MOL      0.443646
    143 O21         6.3450    3.1540    1.1590 o         1 MOL     -0.532181
    144 C45         6.1530    2.7140   -1.9730 c3        1 MOL     -0.390501
    145 C46         4.8270    2.1720   -2.4610 c3        1 MOL      0.092351
    146 C47         4.0220    3.0580   -3.3940 c3        1 MOL      0.115893
    147 C48         2.9280    2.2520   -4.0370 c3        1 MOL      0.087257
    148 N13         2.1150    3.1600   -4.8450 n4        1 MOL     -0.323862
    149 H67         6.5820    0.2020   -2.0410 hn        1 MOL      0.175210
    150 H68         7.8110    2.3020   -0.5950 h1        1 MOL      0.138171
    151 H69         6.9040    2.6070   -2.7460 hc        1 MOL      0.126809
    152 H70         5.9520    3.7120   -1.5630 hc        1 MOL      0.126809
    153 H71         4.0920    2.0640   -1.6640 hc        1 MOL      0.011906
    154 H72         5.0290    1.1530   -2.7720 hc        1 MOL      0.011906
    155 H73         4.6770    3.5250   -4.1250 hc        1 MOL     -0.035395
    156 H74         3.5540    3.8980   -2.8610 hc        1 MOL     -0.035395
    157 H75         2.2920    1.7980   -3.2770 hx        1 MOL      0.062534
    158 H76         3.4020    1.6170   -4.7800 hx        1 MOL      0.062534
    159 H77         2.6670    3.7740   -5.4180 hn        1 MOL      0.303710
    160 H78         1.6640    2.7280   -5.6440 hn        1 MOL      0.303710
    161 H79         1.3850    3.6600   -4.3640 hn        1 MOL      0.303710
    162 N14         5.1770    1.2330    0.9220 n         1 MOL     -0.148879
    163 C49         4.3150    1.1460    2.0950 c3        1 MOL     -0.077857
    164 C50         4.9090    0.3780    3.2310 c         1 MOL      0.491738
    165 O22         4.6670    0.7060    4.4150 o         1 MOL     -0.538913
    166 C51         2.9730    0.5850    1.6900 c3        1 MOL      0.067164
    167 C52         2.1590    1.6210    0.8700 c3        1 MOL     -0.239754
    168 C53         1.0030    1.0470    0.0490 c         1 MOL      0.927830
    169 O23         1.0420   -0.1320   -0.3780 o         1 MOL     -0.859109
    170 O24        -0.0410    1.7050   -0.1110 o         1 MOL     -0.859109
    171 H80         5.1820    0.4420    0.3020 hn        1 MOL      0.172310
    172 H81         4.1530    2.2040    2.3410 h1        1 MOL      0.063321
    173 H82         2.3140    0.2140    2.4780 hc        1 MOL      0.107830
    174 H83         3.2160   -0.2260    0.9910 hc        1 MOL      0.107830
    175 H84         2.6530    2.2800    0.1560 hc        1 MOL      0.029432
    176 H85         1.7410    2.2600    1.6450 hc        1 MOL      0.029432
    177 N15         5.6630   -0.7000    2.9320 n         1 MOL     -0.233633
    178 C54         6.3560   -1.5780    3.9740 c3        1 MOL     -0.384894
    179 H86         5.8740   -2.5550    4.0040 h1        1 MOL      0.152830
    180 H87         7.4060   -1.6990    3.7070 h1        1 MOL      0.152830
    181 H88         6.2810   -1.1060    4.9540 h1        1 MOL      0.152830
    182 H89         5.9400   -0.7860    1.9600 hn        1 MOL      0.206729
    183 Ca1        -1.5520   -0.1450   -1.3650 Ca        1 MOL      1.871231
    184 O25        -1.3530   -2.5500   -3.0930 oh        1 MOL     -0.947934
    185 H90        -1.9340   -3.0950   -3.6260 ho        1 MOL      0.434949
    186 H91        -0.8740   -2.0230   -3.7210 ho        1 MOL      0.434949
    187 O26        -0.2370   -0.0470   -3.7640 oh        1 MOL     -0.947934
    188 H92         0.6010   -0.2920   -4.1630 ho        1 MOL      0.434949
    189 H93        -0.7130    0.4150   -4.4510 ho        1 MOL      0.434949
@<TRIPOS>BOND
     1    1    2 1   
     2    1    4 1   
     3    1    5 1   
     4    1    6 1   
     5    2    3 2   
     6    2    7 1   
     7    7    8 1   
     8    7   15 1   
     9    8    9 1   
    10    8   11 1   
    11    8   16 1   
    12    9   10 2   
    13    9   19 1   
    14   11   12 1   
    15   11   17 1   
    16   11   18 1   
    17   12   13 1   
    18   12   14 1   
    19   19   20 1   
    20   19   28 1   
    21   20   21 1   
    22   20   23 1   
    23   20   29 1   
    24   21   22 2   
    25   21   41 1   
    26   23   24 1   
    27   23   30 1   
    28   23   31 1   
    29   24   25 1   
    30   24   32 1   
    31   24   33 1   
    32   25   26 1   
    33   25   34 1   
    34   25   35 1   
    35   26   27 1   
    36   26   36 1   
    37   26   37 1   
    38   27   38 1   
    39   27   39 1   
    40   27   40 1   
    41   41   42 1   
    42   41   49 1   
    43   42   43 1   
    44   42   45 1   
    45   42   50 1   
    46   43   44 2   
    47   43   53 1   
    48   45   46 1   
    49   45   51 1   
    50   45   52 1   
    51   46   47 1   
    52   46   48 1   
    53   53   54 1   
    54   53   57 1   
    55   54   55 1   
    56   54   58 1   
    57   54   59 1   
    58   55   56 2   
    59   55   60 1   
    60   60   61 1   
    61   60   68 1   
    62   61   62 1   
    63   61   64 1   
    64   61   69 1   
    65   62   63 2   
    66   62   72 1   
    67   64   65 1   
    68   64   70 1   
    69   64   71 1   
    70   65   66 1   
    71   65   67 1   
    72   72   73 1   
    73   72   76 1   
    74   73   74 1   
    75   73   77 1   
    76   73   78 1   
    77   74   75 2   
    78   74   79 1   
    79   79   80 1   
    80   79   86 1   
    81   80   81 1   
    82   80   83 1   
    83   80   87 1   
    84   81   82 2   
    85   81   93 1   
    86   83   84 1   
    87   83   85 1   
    88   83   88 1   
    89   84   90 1   
    90   84   91 1   
    91   84   92 1   
    92   85   89 1   
    93   93   94 1   
    94   93  101 1   
    95   94   95 1   
    96   94   97 1   
    97   94  102 1   
    98   95   96 2   
    99   95  112 1   
   100   97   98 1   
   101   97   99 1   
   102   97  103 1   
   103   98  100 1   
   104   98  104 1   
   105   98  105 1   
   106   99  106 1   
   107   99  107 1   
   108   99  108 1   
   109  100  109 1   
   110  100  110 1   
   111  100  111 1   
   112  112  113 1   
   113  112  119 1   
   114  113  114 1   
   115  113  116 1   
   116  113  120 1   
   117  114  115 2   
   118  114  126 1   
   119  116  117 1   
   120  116  118 1   
   121  116  121 1   
   122  117  123 1   
   123  117  124 1   
   124  117  125 1   
   125  118  122 1   
   126  126  127 1   
   127  126  133 1   
   128  127  128 1   
   129  127  130 1   
   130  127  134 1   
   131  128  129 2   
   132  128  140 1   
   133  130  131 1   
   134  130  132 1   
   135  130  135 1   
   136  131  137 1   
   137  131  138 1   
   138  131  139 1   
   139  132  136 1   
   140  140  141 1   
   141  140  149 1   
   142  141  142 1   
   143  141  144 1   
   144  141  150 1   
   145  142  143 2   
   146  142  162 1   
   147  144  145 1   
   148  144  151 1   
   149  144  152 1   
   150  145  146 1   
   151  145  153 1   
   152  145  154 1   
   153  146  147 1   
   154  146  155 1   
   155  146  156 1   
   156  147  148 1   
   157  147  157 1   
   158  147  158 1   
   159  148  159 1   
   160  148  160 1   
   161  148  161 1   
   162  162  163 1   
   163  162  171 1   
   164  163  164 1   
   165  163  166 1   
   166  163  172 1   
   167  164  165 2   
   168  164  177 1   
   169  166  167 1   
   170  166  173 1   
   171  166  174 1   
   172  167  168 1   
   173  167  175 1   
   174  167  176 1   
   175  168  169 1   
   176  168  170 1   
   177  177  178 1   
   178  177  182 1   
   179  178  179 1   
   180  178  180 1   
   181  178  181 1   
   182  184  185 1   
   183  184  186 1   
   184  187  188 1   
   185  187  189 1   
@<TRIPOS>SUBSTRUCTURE
     1 MOL         1 TEMP              0 ****  ****    0 ROOT
