@<TRIPOS>MOLECULE
MOL
  175   173     1     0     0
SMALL
resp


@<TRIPOS>ATOM
      1 C1          0.3850    3.9880    5.5180 c3        1 MOL     -0.466128
      2 C2         -0.1050    4.0860    4.0790 c         1 MOL      0.745840
      3 O1          0.6550    4.1150    3.1070 o         1 MOL     -0.605222
      4 H1          1.0670    3.1430    5.6130 hc        1 MOL      0.116164
      5 H2          0.9060    4.9060    5.7890 hc        1 MOL      0.116164
      6 H3         -0.4670    3.8440    6.1840 hc        1 MOL      0.116164
      7 N1         -1.3790    4.0550    3.8290 n         1 MOL     -0.618750
      8 C3         -1.9900    3.5520    2.5900 c3        1 MOL      0.444788
      9 C4         -2.1570    4.7580    1.5400 c         1 MOL      0.325349
     10 O2         -2.7220    5.7890    1.7990 o         1 MOL     -0.570097
     11 C5         -3.3270    2.9590    2.9820 c3        1 MOL     -0.582583
     12 C6         -4.1240    2.3890    1.8500 c         1 MOL      0.989817
     13 O3         -5.3560    2.1890    2.1780 o         1 MOL     -0.726312
     14 O4         -3.5870    2.1130    0.7300 o         1 MOL     -0.726312
     15 H4         -2.0120    4.1430    4.6090 hn        1 MOL      0.305656
     16 H5         -1.3710    2.7510    2.1790 h1        1 MOL     -0.012113
     17 H6         -4.0110    3.6920    3.4290 hc        1 MOL      0.106053
     18 H7         -2.9820    2.1710    3.6500 hc        1 MOL      0.106053
     19 N2         -1.8300    4.5560    0.2940 n         1 MOL     -0.081776
     20 C7         -1.8980    5.6100   -0.7350 c3        1 MOL      0.252859
     21 C8         -3.0810    5.3850   -1.6770 c         1 MOL      0.400316
     22 O5         -3.3630    6.3040   -2.4160 o         1 MOL     -0.566988
     23 C9         -0.5190    5.7140   -1.4180 c3        1 MOL     -0.316844
     24 H8         -1.3130    3.6990    0.1210 hn        1 MOL      0.105083
     25 H9         -1.9770    6.5650   -0.2150 h1        1 MOL      0.023140
     26 H10         0.1560    5.4770   -0.5970 hc        1 MOL      0.082816
     27 H11        -0.5310    4.9110   -2.1530 hc        1 MOL      0.082816
     28 H12        -0.2320    6.6760   -1.8540 hc        1 MOL      0.082816
     29 N3         -3.7500    4.2090   -1.6650 n         1 MOL     -0.391466
     30 C10        -4.6260    3.7180   -2.7880 c3        1 MOL      0.318626
     31 C11        -5.8490    2.9260   -2.2690 c         1 MOL      0.225973
     32 O6         -6.7970    2.7350   -3.0230 o         1 MOL     -0.530836
     33 C12        -3.8700    2.8160   -3.6910 c3        1 MOL     -0.226172
     34 C13        -3.1180    1.6680   -2.9800 c         1 MOL      0.715729
     35 O7         -3.6100    1.0540   -1.9960 o         1 MOL     -0.698481
     36 O8         -1.9510    1.3790   -3.3560 o         1 MOL     -0.698481
     37 H13        -3.6020    3.5630   -0.8950 hn        1 MOL      0.206458
     38 H14        -4.9840    4.5550   -3.3740 h1        1 MOL      0.031248
     39 H15        -3.1400    3.4640   -4.1790 hc        1 MOL      0.044201
     40 H16        -4.6060    2.4310   -4.3920 hc        1 MOL      0.044201
     41 N4         -5.8810    2.4420   -1.0340 n         1 MOL     -0.045177
     42 C14        -7.0150    1.6610   -0.4460 c3        1 MOL     -0.245946
     43 C15        -7.2320    0.2870   -1.0210 c         1 MOL      0.460832
     44 O9         -8.3520   -0.2560   -0.9230 o         1 MOL     -0.621075
     45 H17        -5.1650    2.6600   -0.3520 hn        1 MOL      0.050319
     46 H18        -7.9020    2.2780   -0.6220 h1        1 MOL      0.131641
     47 H19        -6.9470    1.4840    0.6310 h1        1 MOL      0.131641
     48 N5         -6.2270   -0.3410   -1.5990 n         1 MOL     -0.151439
     49 C16        -6.2180   -1.6000   -2.3670 c3        1 MOL      0.036013
     50 C17        -6.3950   -2.8920   -1.5610 c         1 MOL      0.432082
     51 O10        -6.4790   -4.0130   -2.1480 o         1 MOL     -0.544028
     52 C18        -4.9740   -1.6540   -3.2890 c3        1 MOL     -0.099275
     53 C19        -3.7200   -2.0410   -2.6050 c         1 MOL      0.663310
     54 N6         -2.6380   -2.2140   -3.3630 n         1 MOL     -0.690159
     55 O11        -3.6160   -2.0610   -1.3580 o         1 MOL     -0.661801
     56 H20        -5.3860    0.2050   -1.7000 hn        1 MOL      0.215381
     57 H21        -7.0520   -1.5730   -3.0740 h1        1 MOL      0.076343
     58 H22        -4.8870   -0.7340   -3.8810 hc        1 MOL      0.030506
     59 H23        -5.2080   -2.4860   -3.9490 hc        1 MOL      0.030506
     60 H24        -2.6820   -2.0600   -4.3610 hn        1 MOL      0.349290
     61 H25        -1.7460   -2.4030   -2.9310 hn        1 MOL      0.349290
     62 N7         -6.4400   -2.8510   -0.2160 n         1 MOL     -0.296291
     63 C20        -6.6720   -3.9790    0.6830 c3        1 MOL     -0.148714
     64 C21        -5.4130   -4.4190    1.3620 c         1 MOL      0.443641
     65 O12        -5.4970   -5.3050    2.2120 o         1 MOL     -0.567982
     66 H26        -6.3740   -1.9660    0.2460 hn        1 MOL      0.277310
     67 H27        -7.0140   -4.8490    0.1280 h1        1 MOL      0.120154
     68 H28        -7.4290   -3.7730    1.4440 h1        1 MOL      0.120154
     69 N8         -4.1830   -4.0590    0.9140 n         1 MOL      0.011901
     70 C22        -2.8970   -4.6940    1.3230 c3        1 MOL     -0.525436
     71 C23        -1.8290   -3.6000    1.4870 c         1 MOL      0.891827
     72 O13        -1.9830   -2.4980    0.9680 o         1 MOL     -0.666549
     73 C24        -2.4460   -5.7190    0.2420 c3        1 MOL      0.606217
     74 C25        -3.3530   -6.9900    0.0430 c3        1 MOL     -0.447965
     75 O14        -2.4300   -5.0780   -1.0230 oh        1 MOL     -0.642103
     76 H29        -4.0560   -3.2140    0.3670 hn        1 MOL      0.024201
     77 H30        -3.0360   -5.1000    2.3210 h1        1 MOL      0.148540
     78 H31        -1.4260   -5.9770    0.5310 h1        1 MOL     -0.046155
     79 H32        -2.8910   -4.2410   -0.8940 ho        1 MOL      0.423083
     80 H33        -4.3760   -6.6340    0.0140 hc        1 MOL      0.105470
     81 H34        -3.0590   -7.5420   -0.8480 hc        1 MOL      0.105470
     82 H35        -3.2120   -7.6610    0.8980 hc        1 MOL      0.105470
     83 N9         -0.7850   -3.8460    2.2680 n         1 MOL     -0.610336
     84 C26         0.4540   -2.9610    2.1430 c3        1 MOL      0.066753
     85 C27         1.2930   -3.3490    0.8570 c         1 MOL      0.345446
     86 O15         1.3990   -4.5210    0.5620 o         1 MOL     -0.543983
     87 C28         1.3660   -3.0640    3.4450 c3        1 MOL      0.281530
     88 C29         0.6710   -2.4850    4.7510 c3        1 MOL     -0.028629
     89 C30         2.6450   -2.2590    3.3200 c3        1 MOL     -0.402323
     90 C31         1.5510   -2.5830    5.9840 c3        1 MOL     -0.056168
     91 H36        -0.6890   -4.6640    2.8600 hn        1 MOL      0.318153
     92 H37         0.1730   -1.9210    1.9730 h1        1 MOL     -0.080867
     93 H38         1.5850   -4.1110    3.6730 hc        1 MOL     -0.038461
     94 H39        -0.2310   -3.1000    4.8260 hc        1 MOL      0.002827
     95 H40         0.4480   -1.4320    4.6060 hc        1 MOL      0.002827
     96 H41         2.4710   -1.1880    3.4620 hc        1 MOL      0.072880
     97 H42         3.3290   -2.5450    4.1190 hc        1 MOL      0.072880
     98 H43         3.1230   -2.5230    2.3780 hc        1 MOL      0.072880
     99 H44         2.3620   -1.8590    6.0060 hc        1 MOL      0.013143
    100 H45         0.9380   -2.3760    6.8610 hc        1 MOL      0.013143
    101 H46         1.9750   -3.5760    6.1230 hc        1 MOL      0.013143
    102 N10         1.8900   -2.3650    0.2090 n         1 MOL      0.008438
    103 C32         2.7450   -2.3990   -0.9760 c3        1 MOL      0.054226
    104 C33         4.2340   -1.8000   -0.6760 c         1 MOL      0.111201
    105 O16         4.4000   -1.0360    0.2700 o         1 MOL     -0.188961
    106 C34         2.1570   -1.4920   -2.1010 c3        1 MOL     -0.156406
    107 C35         0.6370   -1.6830   -2.2840 c         1 MOL      0.647973
    108 O17        -0.0930   -1.1850   -1.3910 o         1 MOL     -0.649927
    109 O18         0.2620   -2.3230   -3.2440 o         1 MOL     -0.649927
    110 H47         1.5540   -1.4630    0.5230 hn        1 MOL      0.217823
    111 H48         2.9070   -3.4100   -1.3140 h1        1 MOL      0.050176
    112 H49         2.7190   -1.6550   -3.0180 hc        1 MOL      0.041181
    113 H50         2.3070   -0.4270   -1.8810 hc        1 MOL      0.041181
    114 N11         5.2680   -2.2570   -1.2870 n         1 MOL     -0.351852
    115 C36         6.6690   -1.8660   -1.0750 c3        1 MOL      0.212545
    116 C37         7.0290   -0.4060   -0.8180 c         1 MOL      0.574819
    117 O19         7.7330   -0.1920    0.1670 o         1 MOL     -0.536734
    118 C38         7.5840   -2.3850   -2.2070 c3        1 MOL     -0.351198
    119 C39         8.9730   -1.6540   -2.2990 ca        1 MOL      0.245264
    120 C40         9.8980   -1.9620   -1.2920 ca        1 MOL     -0.270027
    121 C41         9.4370   -0.8960   -3.3840 ca        1 MOL     -0.270027
    122 C42        11.1410   -1.3260   -1.2150 ca        1 MOL     -0.028733
    123 C43        10.7000   -0.1950   -3.3420 ca        1 MOL     -0.028733
    124 C44        11.5830   -0.5310   -2.2790 ca        1 MOL     -0.183432
    125 H51         5.0370   -2.9840   -1.9540 hn        1 MOL      0.288544
    126 H52         6.9550   -2.3990   -0.1690 h1        1 MOL      0.052515
    127 H53         7.0590   -2.4040   -3.1680 hc        1 MOL      0.096025
    128 H54         7.7440   -3.4270   -1.9160 hc        1 MOL      0.096025
    129 H55         9.6720   -2.7350   -0.5690 ha        1 MOL      0.135275
    130 H56         8.7190   -0.5710   -4.1220 ha        1 MOL      0.135275
    131 H57        11.7040   -1.6670   -0.3570 ha        1 MOL      0.102365
    132 H58        11.0130    0.4700   -4.1260 ha        1 MOL      0.102365
    133 H59        12.6150   -0.2320   -2.3200 ha        1 MOL      0.108774
    134 N12         6.4990    0.5750   -1.5520 n         1 MOL     -0.206568
    135 C45         6.7090    2.0480   -1.2130 c3        1 MOL     -0.172407
    136 C46         5.8110    2.5810   -0.0480 c         1 MOL      0.446553
    137 O20         6.0090    3.7720    0.3710 o         1 MOL     -0.529692
    138 C47         6.5140    2.8250   -2.5210 c3        1 MOL     -0.006669
    139 C48         5.3690    1.9920   -3.1380 c3        1 MOL      0.106393
    140 C49         5.6320    0.5000   -2.7350 c3        1 MOL     -0.164081
    141 H60         7.7000    2.1440   -0.7520 h1        1 MOL      0.124547
    142 H61         6.2160    3.8710   -2.4480 hc        1 MOL      0.037601
    143 H62         7.4120    2.8450   -3.1550 hc        1 MOL      0.037601
    144 H63         4.4270    2.3300   -2.7160 hc        1 MOL      0.005514
    145 H64         5.3430    2.1430   -4.2150 hc        1 MOL      0.005514
    146 H65         4.6890   -0.0160   -2.5470 h1        1 MOL      0.067978
    147 H66         6.0260   -0.0570   -3.5800 h1        1 MOL      0.067978
    148 N13         4.7800    1.8010    0.4530 n         1 MOL     -0.168400
    149 C50         4.0840    2.1510    1.7420 c3        1 MOL     -0.135431
    150 C51         4.7660    1.3940    2.9050 c         1 MOL      0.481487
    151 O21         4.7380    1.8470    4.0210 o         1 MOL     -0.574112
    152 C52         2.6600    1.6340    1.7570 c3        1 MOL     -0.053276
    153 C53         1.7160    2.3280    0.7980 c3        1 MOL     -0.080508
    154 C54         0.3670    1.5880    0.6020 c         1 MOL      0.400626
    155 O22         0.0640    0.5710    1.3160 o         1 MOL     -0.611114
    156 O23        -0.3210    1.8510   -0.3890 o         1 MOL     -0.611114
    157 H67         4.4920    0.9780   -0.0410 hn        1 MOL      0.201124
    158 H68         4.0140    3.2180    1.9650 h1        1 MOL      0.119278
    159 H69         2.2760    1.7220    2.7790 hc        1 MOL      0.088811
    160 H70         2.7850    0.6030    1.4340 hc        1 MOL      0.088811
    161 H71         2.2410    2.4620   -0.1450 hc        1 MOL      0.060682
    162 H72         1.5980    3.3850    1.0370 hc        1 MOL      0.060682
    163 N14         5.3010    0.2090    2.6970 n         1 MOL      0.060150
    164 C55         6.1940   -0.5160    3.5510 c3        1 MOL     -0.335491
    165 H73         6.3240   -1.5260    3.1660 h1        1 MOL      0.105881
    166 H74         7.1600   -0.0110    3.5800 h1        1 MOL      0.105881
    167 H75         5.7780   -0.5610    4.5570 h1        1 MOL      0.105881
    168 H76         5.4440   -0.1180    1.7580 hn        1 MOL     -0.061134
    169 Ca1        -2.1230   -0.0460   -0.1680 Ca        1 MOL      1.693150
    170 O24        -4.4120   -0.6740    1.2350 oh        1 MOL     -0.792506
    171 H77        -3.8290   -0.4820    1.9700 ho        1 MOL      0.385438
    172 H78        -5.2690   -0.3450    1.5120 ho        1 MOL      0.385438
    173 O25        -2.0730   -0.1020    2.6720 oh        1 MOL     -0.792506
    174 H79        -1.2090   -0.0490    2.2660 ho        1 MOL      0.385438
    175 H80        -1.9100    0.0300    3.6040 ho        1 MOL      0.385438
@<TRIPOS>BOND
     1    1    2 1   
     2    1    4 1   
     3    1    5 1   
     4    1    6 1   
     5    2    3 2   
     6    2    7 1   
     7    7    8 1   
     8    7   15 1   
     9    8    9 1   
    10    8   11 1   
    11    8   16 1   
    12    9   10 2   
    13    9   19 1   
    14   11   12 1   
    15   11   17 1   
    16   11   18 1   
    17   12   13 1   
    18   12   14 1   
    19   19   20 1   
    20   19   24 1   
    21   20   21 1   
    22   20   23 1   
    23   20   25 1   
    24   21   22 2   
    25   21   29 1   
    26   23   26 1   
    27   23   27 1   
    28   23   28 1   
    29   29   30 1   
    30   29   37 1   
    31   30   31 1   
    32   30   33 1   
    33   30   38 1   
    34   31   32 2   
    35   31   41 1   
    36   33   34 1   
    37   33   39 1   
    38   33   40 1   
    39   34   35 1   
    40   34   36 1   
    41   41   42 1   
    42   41   45 1   
    43   42   43 1   
    44   42   46 1   
    45   42   47 1   
    46   43   44 2   
    47   43   48 1   
    48   48   49 1   
    49   48   56 1   
    50   49   50 1   
    51   49   52 1   
    52   49   57 1   
    53   50   51 2   
    54   50   62 1   
    55   52   53 1   
    56   52   58 1   
    57   52   59 1   
    58   53   54 1   
    59   53   55 2   
    60   54   60 1   
    61   54   61 1   
    62   62   63 1   
    63   62   66 1   
    64   63   64 1   
    65   63   67 1   
    66   63   68 1   
    67   64   65 2   
    68   64   69 1   
    69   69   70 1   
    70   69   76 1   
    71   70   71 1   
    72   70   73 1   
    73   70   77 1   
    74   71   72 2   
    75   71   83 1   
    76   73   74 1   
    77   73   75 1   
    78   73   78 1   
    79   74   80 1   
    80   74   81 1   
    81   74   82 1   
    82   75   79 1   
    83   83   84 1   
    84   83   91 1   
    85   84   85 1   
    86   84   87 1   
    87   84   92 1   
    88   85   86 2   
    89   85  102 1   
    90   87   88 1   
    91   87   89 1   
    92   87   93 1   
    93   88   90 1   
    94   88   94 1   
    95   88   95 1   
    96   89   96 1   
    97   89   97 1   
    98   89   98 1   
    99   90   99 1   
   100   90  100 1   
   101   90  101 1   
   102  102  103 1   
   103  102  110 1   
   104  103  104 1   
   105  103  106 1   
   106  103  111 1   
   107  104  105 2   
   108  104  114 1   
   109  106  107 1   
   110  106  112 1   
   111  106  113 1   
   112  107  108 1   
   113  107  109 1   
   114  114  115 1   
   115  114  125 1   
   116  115  116 1   
   117  115  118 1   
   118  115  126 1   
   119  116  117 2   
   120  116  134 1   
   121  118  119 1   
   122  118  127 1   
   123  118  128 1   
   124  119  120 ar  
   125  119  121 ar  
   126  120  122 ar  
   127  120  129 1   
   128  121  123 ar  
   129  121  130 1   
   130  122  124 ar  
   131  122  131 1   
   132  123  124 ar  
   133  123  132 1   
   134  124  133 1   
   135  134  135 1   
   136  134  140 1   
   137  135  136 1   
   138  135  138 1   
   139  135  141 1   
   140  136  137 2   
   141  136  148 1   
   142  138  139 1   
   143  138  142 1   
   144  138  143 1   
   145  139  140 1   
   146  139  144 1   
   147  139  145 1   
   148  140  146 1   
   149  140  147 1   
   150  148  149 1   
   151  148  157 1   
   152  149  150 1   
   153  149  152 1   
   154  149  158 1   
   155  150  151 2   
   156  150  163 1   
   157  152  153 1   
   158  152  159 1   
   159  152  160 1   
   160  153  154 1   
   161  153  161 1   
   162  153  162 1   
   163  154  155 1   
   164  154  156 1   
   165  163  164 1   
   166  163  168 1   
   167  164  165 1   
   168  164  166 1   
   169  164  167 1   
   170  170  171 1   
   171  170  172 1   
   172  173  174 1   
   173  173  175 1   
@<TRIPOS>SUBSTRUCTURE
     1 MOL         1 TEMP              0 ****  ****    0 ROOT
