@<TRIPOS>MOLECULE
MOL
  175   173     1     0     0
SMALL
resp


@<TRIPOS>ATOM
      1 C1          0.5770    4.5980    5.1090 c3        1 MOL     -0.426467
      2 C2         -0.1170    4.5930    3.7460 c         1 MOL      0.753637
      3 O1          0.5510    4.6500    2.7110 o         1 MOL     -0.565589
      4 H1         -0.1610    4.4260    5.8930 hc        1 MOL      0.103987
      5 H2          1.3270    3.8070    5.1390 hc        1 MOL      0.103987
      6 H3          1.0590    5.5620    5.2690 hc        1 MOL      0.103987
      7 N1         -1.4540    4.6390    3.6460 n         1 MOL     -0.669093
      8 C3         -2.0300    4.0970    2.4380 c3        1 MOL      0.346068
      9 C4         -2.3360    5.1860    1.4730 c         1 MOL      0.654384
     10 O2         -2.7120    6.2870    1.9190 o         1 MOL     -0.603136
     11 C5         -3.2740    3.2850    2.8410 c3        1 MOL     -0.456242
     12 C6         -3.8640    2.4810    1.6290 c         1 MOL      0.762615
     13 O3         -5.0720    2.2910    1.7190 o         1 MOL     -0.648019
     14 O4         -3.2410    2.2120    0.5620 o         1 MOL     -0.648019
     15 H4         -2.0310    4.5570    4.4670 hn        1 MOL      0.326390
     16 H5         -1.3230    3.4060    1.9790 h1        1 MOL     -0.052575
     17 H6         -4.0490    4.0110    3.1320 hc        1 MOL      0.092471
     18 H7         -3.0050    2.6140    3.6500 hc        1 MOL      0.092471
     19 N2         -2.2980    4.9270    0.1510 n         1 MOL     -0.714521
     20 C7         -2.8480    5.8470   -0.9130 c3        1 MOL      0.442830
     21 C8         -3.5930    5.0900   -2.0230 c         1 MOL      0.355682
     22 O5         -3.9540    5.7080   -3.0090 o         1 MOL     -0.543702
     23 C9         -1.6150    6.5470   -1.5020 c3        1 MOL     -0.256094
     24 H8         -2.0690    3.9680   -0.0450 hn        1 MOL      0.351680
     25 H9         -3.4930    6.6310   -0.5340 h1        1 MOL      0.004293
     26 H10        -2.0650    7.2700   -2.1760 hc        1 MOL      0.058325
     27 H11        -1.1020    7.1190   -0.7320 hc        1 MOL      0.058325
     28 H12        -0.9510    5.8500   -2.0230 hc        1 MOL      0.058325
     29 N3         -3.8930    3.7800   -1.9150 n         1 MOL     -0.330262
     30 C10        -4.7120    3.1040   -2.9210 c3        1 MOL      0.084797
     31 C11        -5.9330    2.2900   -2.3800 c         1 MOL      0.339302
     32 O6         -6.8590    2.0050   -3.1160 o         1 MOL     -0.570047
     33 C12        -3.7560    2.2490   -3.7510 c3        1 MOL     -0.148609
     34 C13        -3.0140    1.2330   -2.9600 c         1 MOL      0.703373
     35 O7         -3.6980    0.4240   -2.3300 o         1 MOL     -0.701041
     36 O8         -1.7770    1.1100   -2.9100 o         1 MOL     -0.701041
     37 H13        -3.5850    3.3160   -1.0750 hn        1 MOL      0.220186
     38 H14        -5.1210    3.8580   -3.5970 h1        1 MOL      0.096070
     39 H15        -3.1310    2.9480   -4.3000 hc        1 MOL      0.045877
     40 H16        -4.1810    1.8070   -4.6460 hc        1 MOL      0.045877
     41 N4         -5.9620    1.8050   -1.1400 n         1 MOL      0.010779
     42 C14        -7.1250    1.2410   -0.5060 c3        1 MOL     -0.203131
     43 C15        -7.2730   -0.2460   -0.9000 c         1 MOL      0.439153
     44 O9         -8.2230   -0.9440   -0.5250 o         1 MOL     -0.600328
     45 H17        -5.1430    1.9100   -0.5550 hn        1 MOL     -0.018416
     46 H18        -7.9890    1.8650   -0.7080 h1        1 MOL      0.120347
     47 H19        -7.0690    1.3940    0.5690 h1        1 MOL      0.120347
     48 N5         -6.3700   -0.8470   -1.7040 n         1 MOL     -0.158000
     49 C16        -6.4500   -2.2980   -1.9470 c3        1 MOL     -0.028763
     50 C17        -6.6090   -3.2420   -0.7840 c         1 MOL      0.588657
     51 O10        -7.1510   -4.3370   -1.0350 o         1 MOL     -0.582391
     52 C18        -5.2740   -2.7800   -2.8590 c3        1 MOL     -0.306943
     53 C19        -3.8880   -2.6010   -2.2780 c         1 MOL      0.736791
     54 N6         -2.8460   -2.7780   -3.0910 n         1 MOL     -0.632169
     55 O11        -3.6580   -2.2700   -1.0810 o         1 MOL     -0.701354
     56 H20        -5.5440   -0.3040   -1.9380 hn        1 MOL      0.174990
     57 H21        -7.3980   -2.3010   -2.4880 h1        1 MOL      0.095351
     58 H22        -5.2530   -2.1760   -3.7580 hc        1 MOL      0.092760
     59 H23        -5.5400   -3.8090   -3.0790 hc        1 MOL      0.092760
     60 H24        -2.9640   -3.0130   -4.0650 hn        1 MOL      0.323820
     61 H25        -1.9100   -2.6810   -2.7230 hn        1 MOL      0.323820
     62 N7         -6.2020   -2.8160    0.4150 n         1 MOL     -0.215911
     63 C20        -6.3460   -3.5890    1.6260 c3        1 MOL     -0.256873
     64 C21        -5.0950   -4.2640    2.1180 c         1 MOL      0.486673
     65 O12        -5.1490   -5.2470    2.8980 o         1 MOL     -0.546509
     66 H26        -5.6800   -1.9540    0.5070 hn        1 MOL      0.261433
     67 H27        -7.0920   -4.3700    1.4820 h1        1 MOL      0.121281
     68 H28        -6.6190   -2.9190    2.4390 h1        1 MOL      0.121281
     69 N8         -3.9270   -3.7630    1.6020 n         1 MOL     -0.129334
     70 C22        -2.6180   -4.4260    1.6670 c3        1 MOL     -0.407247
     71 C23        -1.4490   -3.4410    1.6730 c         1 MOL      0.648349
     72 O13        -1.5720   -2.4150    0.9790 o         1 MOL     -0.547088
     73 C24        -2.4470   -5.4210    0.5380 c3        1 MOL      0.657202
     74 C25        -3.4640   -6.5430    0.5740 c3        1 MOL     -0.461141
     75 O14        -2.5640   -4.8340   -0.7460 oh        1 MOL     -0.643831
     76 H29        -3.9140   -2.8300    1.2150 hn        1 MOL      0.129243
     77 H30        -2.7110   -4.9700    2.6130 h1        1 MOL      0.105924
     78 H31        -1.5060   -5.9440    0.6830 h1        1 MOL     -0.057454
     79 H32        -2.9810   -3.9750   -0.6320 ho        1 MOL      0.326515
     80 H33        -3.5850   -6.9710    1.5670 hc        1 MOL      0.108333
     81 H34        -4.3980   -6.0700    0.2630 hc        1 MOL      0.108333
     82 H35        -3.3450   -7.3410   -0.1700 hc        1 MOL      0.108333
     83 N9         -0.3340   -3.6980    2.3500 n         1 MOL     -0.470214
     84 C26         0.8410   -2.8340    2.2060 c3        1 MOL      0.070860
     85 C27         1.6240   -3.1410    0.8610 c         1 MOL      0.509650
     86 O15         2.0850   -4.2690    0.6070 o         1 MOL     -0.588523
     87 C28         1.8240   -2.8600    3.4400 c3        1 MOL      0.000410
     88 C29         1.3360   -1.7600    4.4800 c3        1 MOL      0.147702
     89 C30         3.3170   -2.6280    3.0380 c3        1 MOL     -0.057197
     90 C31         1.8770   -1.7800    5.9490 c3        1 MOL     -0.271465
     91 H36        -0.2610   -4.5450    2.9010 hn        1 MOL      0.289164
     92 H37         0.5310   -1.7890    2.0860 h1        1 MOL     -0.063304
     93 H38         1.8260   -3.8470    3.9040 hc        1 MOL      0.026658
     94 H39         0.2580   -1.9480    4.5760 hc        1 MOL     -0.017626
     95 H40         1.5010   -0.7600    4.0760 hc        1 MOL     -0.017626
     96 H41         3.4760   -1.5980    2.7420 hc        1 MOL      0.002925
     97 H42         4.0160   -2.8050    3.8500 hc        1 MOL      0.002925
     98 H43         3.6680   -3.2160    2.1950 hc        1 MOL      0.002925
     99 H44         1.3140   -0.9770    6.4290 hc        1 MOL      0.056544
    100 H45         1.6800   -2.7850    6.3140 hc        1 MOL      0.056544
    101 H46         2.9400   -1.5530    5.9600 hc        1 MOL      0.056544
    102 N10         1.7780   -2.0740    0.0970 n         1 MOL     -0.221481
    103 C32         2.6300   -2.0170   -1.1620 c3        1 MOL     -0.021089
    104 C33         4.0680   -1.4260   -0.8770 c         1 MOL      0.415851
    105 O16         4.3380   -0.8440    0.1480 o         1 MOL     -0.260903
    106 C34         1.9380   -1.1880   -2.3010 c3        1 MOL     -0.156917
    107 C35         0.5420   -1.6750   -2.6190 c         1 MOL      0.701015
    108 O17        -0.3680   -1.4300   -1.7950 o         1 MOL     -0.674022
    109 O18         0.3330   -2.1270   -3.7780 o         1 MOL     -0.674022
    110 H47         1.3880   -1.2260    0.4760 hn        1 MOL      0.186921
    111 H48         2.6840   -2.9870   -1.6600 h1        1 MOL      0.077633
    112 H49         2.5840   -1.3020   -3.1710 hc        1 MOL      0.043372
    113 H50         1.8820   -0.1180   -2.0750 hc        1 MOL      0.043372
    114 N11         5.0130   -1.7880   -1.6970 n         1 MOL     -0.636193
    115 C36         6.4320   -1.5020   -1.3760 c3        1 MOL      0.390541
    116 C37         6.8040   -0.0380   -1.0400 c         1 MOL      0.301419
    117 O19         7.3140    0.2350    0.0660 o         1 MOL     -0.463929
    118 C38         7.3160   -2.1760   -2.4860 c3        1 MOL     -0.331220
    119 C39         8.7810   -1.9950   -2.1320 ca        1 MOL      0.205747
    120 C40         9.3110   -2.5000   -0.9450 ca        1 MOL     -0.222470
    121 C41         9.6050   -1.3490   -3.0920 ca        1 MOL     -0.222470
    122 C42        10.7130   -2.3490   -0.7130 ca        1 MOL     -0.059850
    123 C43        10.9920   -1.3080   -2.8760 ca        1 MOL     -0.059850
    124 C44        11.5300   -1.7630   -1.6990 ca        1 MOL     -0.178168
    125 H51         4.7780   -2.3850   -2.4770 hn        1 MOL      0.354984
    126 H52         6.5850   -2.0020   -0.4250 h1        1 MOL      0.042027
    127 H53         7.0150   -1.6660   -3.4090 hc        1 MOL      0.089279
    128 H54         7.0750   -3.2350   -2.5770 hc        1 MOL      0.089279
    129 H55         8.6770   -3.0700   -0.2810 ha        1 MOL      0.129775
    130 H56         9.2130   -0.8940   -3.9990 ha        1 MOL      0.129775
    131 H57        11.1380   -2.6760    0.2270 ha        1 MOL      0.101308
    132 H58        11.6620   -0.8340   -3.5770 ha        1 MOL      0.101308
    133 H59        12.5790   -1.5650   -1.5050 ha        1 MOL      0.114915
    134 N12         6.3810    0.9430   -1.8450 n         1 MOL     -0.099362
    135 C45         6.5720    2.3550   -1.4090 c3        1 MOL     -0.074719
    136 C46         5.8700    2.7370   -0.0580 c         1 MOL      0.284142
    137 O20         6.4070    3.4880    0.7470 o         1 MOL     -0.492835
    138 C47         5.9530    3.2100   -2.5330 c3        1 MOL      0.191232
    139 C48         5.6850    2.3160   -3.6910 c3        1 MOL     -0.045085
    140 C49         5.6000    0.9040   -3.0850 c3        1 MOL     -0.121925
    141 H60         7.6350    2.5810   -1.3980 h1        1 MOL      0.086698
    142 H61         4.9940    3.6090   -2.2170 hc        1 MOL     -0.015779
    143 H62         6.4950    4.1210   -2.7780 hc        1 MOL     -0.015779
    144 H63         4.7880    2.5710   -4.2540 hc        1 MOL      0.016897
    145 H64         6.5970    2.5250   -4.2510 hc        1 MOL      0.016897
    146 H65         4.5400    0.6760   -2.9320 h1        1 MOL      0.073980
    147 H66         5.9220    0.1760   -3.8180 h1        1 MOL      0.073980
    148 N13         4.7980    2.0430    0.3120 n         1 MOL     -0.087190
    149 C50         4.0930    2.1650    1.6680 c3        1 MOL     -0.073278
    150 C51         4.8990    1.4660    2.7910 c         1 MOL      0.470028
    151 O21         5.0070    2.0540    3.8650 o         1 MOL     -0.582686
    152 C52         2.6460    1.5460    1.7010 c3        1 MOL     -0.166873
    153 C53         1.8390    1.9910    0.4470 c3        1 MOL     -0.006970
    154 C54         0.4360    1.3960    0.4140 c         1 MOL      0.722186
    155 O22         0.2220    0.2530    0.8830 o         1 MOL     -0.728444
    156 O23        -0.4540    1.9410   -0.2720 o         1 MOL     -0.728444
    157 H67         4.5080    1.2530   -0.2290 hn        1 MOL      0.117698
    158 H68         4.0120    3.2100    1.9330 h1        1 MOL      0.118353
    159 H69         2.0200    1.9260    2.5180 hc        1 MOL      0.069841
    160 H70         2.6680    0.4590    1.7050 hc        1 MOL      0.069841
    161 H71         2.3630    1.8800   -0.4990 hc        1 MOL      0.034583
    162 H72         1.7670    3.0860    0.4240 hc        1 MOL      0.034583
    163 N14         5.5440    0.3270    2.5540 n         1 MOL      0.055549
    164 C55         6.4870   -0.2320    3.5440 c3        1 MOL     -0.230255
    165 H73         7.2580   -0.8040    3.0270 h1        1 MOL      0.081934
    166 H74         6.9520    0.5800    4.1030 h1        1 MOL      0.081934
    167 H75         5.9490   -0.8860    4.2300 h1        1 MOL      0.081934
    168 H76         5.3440   -0.0330    1.6360 hn        1 MOL     -0.000940
    169 Ca1        -2.1160   -0.0530   -0.4120 Ca        1 MOL      1.727958
    170 O24        -1.7390   -0.0990    2.6620 oh        1 MOL     -0.785403
    171 H77        -0.9380   -0.1080    2.1350 ho        1 MOL      0.395554
    172 H78        -1.4760    0.2830    3.5020 ho        1 MOL      0.395554
    173 O25        -4.0840   -0.6180    1.3670 oh        1 MOL     -0.785403
    174 H79        -3.3870   -0.5470    2.0170 ho        1 MOL      0.395554
    175 H80        -4.8820   -0.4120    1.8570 ho        1 MOL      0.395554
@<TRIPOS>BOND
     1    1    2 1   
     2    1    4 1   
     3    1    5 1   
     4    1    6 1   
     5    2    3 2   
     6    2    7 1   
     7    7    8 1   
     8    7   15 1   
     9    8    9 1   
    10    8   11 1   
    11    8   16 1   
    12    9   10 2   
    13    9   19 1   
    14   11   12 1   
    15   11   17 1   
    16   11   18 1   
    17   12   13 1   
    18   12   14 1   
    19   19   20 1   
    20   19   24 1   
    21   20   21 1   
    22   20   23 1   
    23   20   25 1   
    24   21   22 2   
    25   21   29 1   
    26   23   26 1   
    27   23   27 1   
    28   23   28 1   
    29   29   30 1   
    30   29   37 1   
    31   30   31 1   
    32   30   33 1   
    33   30   38 1   
    34   31   32 2   
    35   31   41 1   
    36   33   34 1   
    37   33   39 1   
    38   33   40 1   
    39   34   35 1   
    40   34   36 1   
    41   41   42 1   
    42   41   45 1   
    43   42   43 1   
    44   42   46 1   
    45   42   47 1   
    46   43   44 2   
    47   43   48 1   
    48   48   49 1   
    49   48   56 1   
    50   49   50 1   
    51   49   52 1   
    52   49   57 1   
    53   50   51 2   
    54   50   62 1   
    55   52   53 1   
    56   52   58 1   
    57   52   59 1   
    58   53   54 1   
    59   53   55 2   
    60   54   60 1   
    61   54   61 1   
    62   62   63 1   
    63   62   66 1   
    64   63   64 1   
    65   63   67 1   
    66   63   68 1   
    67   64   65 2   
    68   64   69 1   
    69   69   70 1   
    70   69   76 1   
    71   70   71 1   
    72   70   73 1   
    73   70   77 1   
    74   71   72 2   
    75   71   83 1   
    76   73   74 1   
    77   73   75 1   
    78   73   78 1   
    79   74   80 1   
    80   74   81 1   
    81   74   82 1   
    82   75   79 1   
    83   83   84 1   
    84   83   91 1   
    85   84   85 1   
    86   84   87 1   
    87   84   92 1   
    88   85   86 2   
    89   85  102 1   
    90   87   88 1   
    91   87   89 1   
    92   87   93 1   
    93   88   90 1   
    94   88   94 1   
    95   88   95 1   
    96   89   96 1   
    97   89   97 1   
    98   89   98 1   
    99   90   99 1   
   100   90  100 1   
   101   90  101 1   
   102  102  103 1   
   103  102  110 1   
   104  103  104 1   
   105  103  106 1   
   106  103  111 1   
   107  104  105 2   
   108  104  114 1   
   109  106  107 1   
   110  106  112 1   
   111  106  113 1   
   112  107  108 1   
   113  107  109 1   
   114  114  115 1   
   115  114  125 1   
   116  115  116 1   
   117  115  118 1   
   118  115  126 1   
   119  116  117 2   
   120  116  134 1   
   121  118  119 1   
   122  118  127 1   
   123  118  128 1   
   124  119  120 ar  
   125  119  121 ar  
   126  120  122 ar  
   127  120  129 1   
   128  121  123 ar  
   129  121  130 1   
   130  122  124 ar  
   131  122  131 1   
   132  123  124 ar  
   133  123  132 1   
   134  124  133 1   
   135  134  135 1   
   136  134  140 1   
   137  135  136 1   
   138  135  138 1   
   139  135  141 1   
   140  136  137 2   
   141  136  148 1   
   142  138  139 1   
   143  138  142 1   
   144  138  143 1   
   145  139  140 1   
   146  139  144 1   
   147  139  145 1   
   148  140  146 1   
   149  140  147 1   
   150  148  149 1   
   151  148  157 1   
   152  149  150 1   
   153  149  152 1   
   154  149  158 1   
   155  150  151 2   
   156  150  163 1   
   157  152  153 1   
   158  152  159 1   
   159  152  160 1   
   160  153  154 1   
   161  153  161 1   
   162  153  162 1   
   163  154  155 1   
   164  154  156 1   
   165  163  164 1   
   166  163  168 1   
   167  164  165 1   
   168  164  166 1   
   169  164  167 1   
   170  170  171 1   
   171  170  172 1   
   172  173  174 1   
   173  173  175 1   
@<TRIPOS>SUBSTRUCTURE
     1 MOL         1 TEMP              0 ****  ****    0 ROOT
