@<TRIPOS>MOLECULE
MOL
  179   176     1     0     0
SMALL
resp


@<TRIPOS>ATOM
      1 C1         -1.4920   -3.0940    5.6900 c3        1 MOL     -0.397878
      2 C2         -1.2650   -2.6980    4.2490 c         1 MOL      0.812753
      3 O1         -2.0440   -2.8760    3.3400 o         1 MOL     -0.656967
      4 H1         -0.9910   -2.3830    6.3450 hc        1 MOL      0.102307
      5 H2         -2.5610   -3.0930    5.9030 hc        1 MOL      0.102307
      6 H3         -1.0890   -4.0930    5.8600 hc        1 MOL      0.102307
      7 N1         -0.0900   -2.1920    3.9260 n         1 MOL     -0.604615
      8 C3          0.5230   -2.1430    2.6350 c3        1 MOL      0.075896
      9 C4          0.6340   -3.5280    1.9790 c         1 MOL      0.506396
     10 O2          1.3240   -4.4520    2.4860 o         1 MOL     -0.521695
     11 C5          1.8520   -1.4540    2.8030 c3        1 MOL     -0.244073
     12 C6          2.6250   -1.1360    1.6060 c         1 MOL      0.592540
     13 O3          2.1610   -1.4600    0.4740 o         1 MOL     -0.640451
     14 O4          3.7510   -0.6210    1.8210 o         1 MOL     -0.640451
     15 H4          0.5320   -1.9570    4.6960 hn        1 MOL      0.305451
     16 H5         -0.0970   -1.5240    1.9770 h1        1 MOL      0.032076
     17 H6          2.5070   -2.1200    3.3630 hc        1 MOL      0.092807
     18 H7          1.6400   -0.4930    3.2730 hc        1 MOL      0.092807
     19 N2          0.0800   -3.7400    0.7490 n         1 MOL     -0.229441
     20 C7         -0.0790   -5.1080    0.2410 c3        1 MOL     -0.052508
     21 C8          1.1960   -5.6800   -0.4430 c         1 MOL      0.396180
     22 O5          1.3960   -6.8820   -0.4080 o         1 MOL     -0.518803
     23 C9         -1.2860   -5.0880   -0.6740 c3        1 MOL     -0.072072
     24 C10        -2.6780   -5.0410    0.0020 c3        1 MOL      0.043120
     25 C11        -4.0190   -5.1220   -0.7680 c3        1 MOL     -0.039251
     26 C12        -5.2220   -5.2450    0.1100 c3        1 MOL      0.211671
     27 N3         -6.4120   -5.8300   -0.5930 n4        1 MOL     -0.468638
     28 H8         -0.4700   -3.0200    0.3150 hn        1 MOL      0.266472
     29 H9         -0.3280   -5.8270    1.0240 h1        1 MOL      0.091389
     30 H10        -1.1470   -6.0200   -1.2240 hc        1 MOL      0.019220
     31 H11        -1.1150   -4.3120   -1.4180 hc        1 MOL      0.019220
     32 H12        -2.7610   -4.1050    0.5630 hc        1 MOL      0.031692
     33 H13        -2.6970   -5.8320    0.7480 hc        1 MOL      0.031692
     34 H14        -4.0610   -6.0730   -1.3060 hc        1 MOL     -0.000875
     35 H15        -4.0700   -4.3140   -1.4970 hc        1 MOL     -0.000875
     36 H16        -5.5050   -4.3520    0.6650 hx        1 MOL      0.055298
     37 H17        -4.9480   -5.8550    0.9790 hx        1 MOL      0.055298
     38 H18        -6.7430   -5.2080   -1.3180 hn        1 MOL      0.344825
     39 H19        -6.2320   -6.7230   -1.0330 hn        1 MOL      0.344825
     40 H20        -7.2260   -6.0220   -0.0250 hn        1 MOL      0.344825
     41 N4          2.1340   -4.8290   -1.0110 n         1 MOL     -0.107003
     42 C13         3.4640   -5.1450   -1.5670 c3        1 MOL     -0.060697
     43 C14         4.6330   -4.7920   -0.6320 c         1 MOL      0.405227
     44 O6          5.7780   -5.2680   -0.7200 o         1 MOL     -0.497264
     45 C15         3.6570   -4.6110   -3.0250 c3        1 MOL     -0.174505
     46 C16         3.2040   -3.2120   -3.3480 c         1 MOL      0.630625
     47 O7          3.4530   -2.5850   -4.4520 o         1 MOL     -0.713693
     48 O8          2.7970   -2.4650   -2.4170 o         1 MOL     -0.713693
     49 H21         1.8910   -3.8410   -1.0100 hn        1 MOL      0.134915
     50 H22         3.4930   -6.2320   -1.6260 h1        1 MOL      0.102872
     51 H23         3.1390   -5.2890   -3.6980 hc        1 MOL      0.071518
     52 H24         4.7190   -4.5710   -3.2380 hc        1 MOL      0.071518
     53 N5          4.3170   -3.9380    0.4120 n         1 MOL     -0.001073
     54 C17         5.2360   -3.6110    1.4300 c3        1 MOL     -0.198894
     55 C18         6.1500   -2.5370    0.9160 c         1 MOL      0.529833
     56 O9          7.3900   -2.6460    1.1020 o         1 MOL     -0.583877
     57 H25         3.3960   -3.5210    0.4640 hn        1 MOL      0.009871
     58 H26         5.8410   -4.4820    1.6540 h1        1 MOL      0.099271
     59 H27         4.6460   -3.2250    2.2650 h1        1 MOL      0.099271
     60 N6          5.6560   -1.6410    0.0950 n         1 MOL     -0.207963
     61 C19         6.5220   -0.7640   -0.6980 c3        1 MOL     -0.062718
     62 C20         6.8540    0.5410   -0.0600 c         1 MOL      0.328932
     63 O10         7.7120    1.2570   -0.5600 o         1 MOL     -0.512594
     64 C21         5.9090   -0.6340   -2.1550 c3        1 MOL     -0.354432
     65 C22         4.8080    0.4070   -2.2740 c         1 MOL      0.720679
     66 N7          4.8880    1.2930   -3.2240 n         1 MOL     -0.739139
     67 O11         3.8290    0.3320   -1.5620 o         1 MOL     -0.687865
     68 H28         4.6540   -1.5200    0.0420 hn        1 MOL      0.145768
     69 H29         7.4880   -1.2460   -0.8620 h1        1 MOL      0.167611
     70 H30         5.6530   -1.5930   -2.6000 hc        1 MOL      0.157551
     71 H31         6.8200   -0.5120   -2.7230 hc        1 MOL      0.157551
     72 H32         5.7580    1.5320   -3.6810 hn        1 MOL      0.365389
     73 H33         4.0750    1.8940   -3.3050 hn        1 MOL      0.365389
     74 N8          6.2360    0.9270    1.0600 n         1 MOL     -0.107530
     75 C23         6.3220    2.2210    1.8000 c3        1 MOL     -0.385373
     76 C24         5.0090    2.8910    1.8350 c         1 MOL      0.734559
     77 O12         4.8850    3.9190    2.5620 o         1 MOL     -0.587832
     78 H34         5.6750    0.2230    1.5220 hn        1 MOL      0.216862
     79 H35         6.9850    2.8890    1.2440 h1        1 MOL      0.178473
     80 H36         6.6930    2.0420    2.8060 h1        1 MOL      0.178473
     81 N9          3.9970    2.5040    1.0480 n         1 MOL     -0.781726
     82 C25         2.8340    3.3870    0.8330 c3        1 MOL      0.289316
     83 C26         1.5150    2.5700    0.6360 c         1 MOL      0.530410
     84 O13         1.4430    1.5270   -0.0440 o         1 MOL     -0.470723
     85 C27         3.1010    4.3510   -0.3400 c3        1 MOL     -0.025582
     86 C28         4.3940    5.1690   -0.1870 ca        1 MOL      0.033505
     87 C29         5.6550    4.7490   -0.7370 ca        1 MOL     -0.158868
     88 C30         4.3820    6.5160    0.2670 ca        1 MOL     -0.158868
     89 C31         6.7690    5.5930   -0.7640 ca        1 MOL     -0.208640
     90 C32         5.5350    7.3040    0.3830 ca        1 MOL     -0.208640
     91 C33         6.7560    6.8610   -0.1600 ca        1 MOL      0.249184
     92 O14         7.9390    7.4820   -0.0160 oh        1 MOL     -0.417649
     93 H37         3.9800    1.6680    0.4820 hn        1 MOL      0.507109
     94 H38         2.6820    4.0040    1.7230 h1        1 MOL      0.037758
     95 H39         2.2810    5.0560   -0.4980 hc        1 MOL      0.015660
     96 H40         3.1750    3.7070   -1.2220 hc        1 MOL      0.015660
     97 H41         5.6760    3.7470   -1.1350 ha        1 MOL      0.106937
     98 H42         3.4290    6.9690    0.5130 ha        1 MOL      0.106937
     99 H43         7.7090    5.2350   -1.1550 ha        1 MOL      0.138147
    100 H44         5.5130    8.2810    0.8360 ha        1 MOL      0.138147
    101 H45         7.6800    8.1690    0.6030 ho        1 MOL      0.336024
    102 N10         0.3890    3.1580    1.1480 n         1 MOL     -0.629225
    103 C34        -0.9370    2.6620    0.8890 c3        1 MOL     -0.000546
    104 C35        -1.8700    3.5680    0.0970 c         1 MOL      0.638363
    105 O15        -2.0080    4.7960    0.3430 o         1 MOL     -0.563482
    106 C36        -1.5420    2.0600    2.2180 c3        1 MOL      0.102020
    107 C37        -1.9960    3.0870    3.2320 c3        1 MOL     -0.210931
    108 C38        -0.6860    0.9160    2.6870 c3        1 MOL      0.036881
    109 C39        -2.6870    2.6120    4.4800 c3        1 MOL     -0.107641
    110 H46         0.5650    3.9630    1.7380 hn        1 MOL      0.322721
    111 H47        -0.8170    1.7180    0.3550 h1        1 MOL      0.021410
    112 H48        -2.5030    1.6600    1.8840 hc        1 MOL     -0.031397
    113 H49        -2.6320    3.8110    2.7310 hc        1 MOL      0.088466
    114 H50        -1.0830    3.5340    3.6230 hc        1 MOL      0.088466
    115 H51        -0.3760    0.3070    1.8380 hc        1 MOL      0.014181
    116 H52         0.2040    1.1030    3.2800 hc        1 MOL      0.014181
    117 H53        -1.3070    0.3350    3.3680 hc        1 MOL      0.014181
    118 H54        -3.1350    3.4220    5.0510 hc        1 MOL      0.033574
    119 H55        -3.4500    1.9040    4.1550 hc        1 MOL      0.033574
    120 H56        -1.9550    2.1150    5.1130 hc        1 MOL      0.033574
    121 N11        -2.6800    3.0450   -0.8420 n         1 MOL     -0.506342
    122 C40        -3.7940    3.7420   -1.4860 c3        1 MOL      0.119940
    123 C41        -5.1440    3.5690   -0.7070 c         1 MOL      0.432640
    124 O16        -5.2810    2.6510    0.1410 o         1 MOL     -0.362966
    125 C42        -3.8320    3.2420   -2.9430 c3        1 MOL     -0.230491
    126 O17        -4.4940    1.9970   -3.1010 oh        1 MOL     -0.449824
    127 H57        -2.6080    2.0730   -1.0860 hn        1 MOL      0.319815
    128 H58        -3.6280    4.8160   -1.3940 h1        1 MOL      0.074926
    129 H59        -2.8420    3.1610   -3.3750 h1        1 MOL      0.132441
    130 H60        -4.3300    4.0530   -3.4660 h1        1 MOL      0.132441
    131 H61        -4.5180    1.6070   -3.9730 ho        1 MOL      0.386486
    132 N12        -6.1570    4.3750   -1.0520 n         1 MOL     -0.452809
    133 C43        -7.5830    4.1190   -0.5450 c3        1 MOL      0.121159
    134 C44        -8.0640    2.6470   -0.7500 c         1 MOL      0.412224
    135 O18        -8.7780    2.0950    0.1070 o         1 MOL     -0.492650
    136 C45        -8.5380    5.1950   -1.0810 c3        1 MOL     -0.261559
    137 H62        -6.0310    5.1430   -1.6810 hn        1 MOL      0.307315
    138 H63        -7.5220    4.2810    0.5310 h1        1 MOL      0.086535
    139 H64        -9.5220    4.8690   -0.7250 hc        1 MOL      0.089027
    140 H65        -8.4220    6.2280   -0.7780 hc        1 MOL      0.089027
    141 H66        -8.5410    5.1070   -2.1620 hc        1 MOL      0.089027
    142 N13        -7.7230    1.9590   -1.8330 n         1 MOL     -0.281545
    143 C46        -8.0390    0.5460   -1.9990 c3        1 MOL      0.070073
    144 C47        -7.3510   -0.3580   -0.9630 c         1 MOL      0.430449
    145 O19        -7.9850   -1.2810   -0.4930 o         1 MOL     -0.520085
    146 C48        -7.6780    0.2470   -3.5150 c3        1 MOL     -0.277460
    147 H67        -7.0220    2.2570   -2.4950 hn        1 MOL      0.186152
    148 H68        -9.1030    0.3340   -1.8940 h1        1 MOL      0.095493
    149 H69        -8.3510    0.8760   -4.1040 hc        1 MOL      0.076357
    150 H70        -6.6340    0.5000   -3.7010 hc        1 MOL      0.076357
    151 H71        -7.7720   -0.7930   -3.7950 hc        1 MOL      0.076357
    152 N14        -6.0770   -0.0850   -0.6980 n         1 MOL     -0.274153
    153 C49        -5.3310   -0.8510    0.3330 c3        1 MOL     -0.059506
    154 C50        -5.8630   -0.5690    1.7090 c         1 MOL      0.416441
    155 O20        -6.0050   -1.4890    2.5490 o         1 MOL     -0.565044
    156 C51        -3.8380   -0.5090    0.2010 c3        1 MOL     -0.069927
    157 C52        -3.2660   -1.1560   -1.0290 c3        1 MOL      0.184664
    158 C53        -1.7750   -0.7180   -1.0950 c         1 MOL      0.808256
    159 O21        -1.2970    0.1820   -1.8220 o         1 MOL     -0.829314
    160 O22        -0.9130   -1.3840   -0.4270 o         1 MOL     -0.829314
    161 H72        -5.6030    0.6510   -1.2060 hn        1 MOL      0.220702
    162 H73        -5.5920   -1.9050    0.1890 h1        1 MOL      0.062630
    163 H74        -3.3720   -1.0250    1.0340 hc        1 MOL      0.072429
    164 H75        -3.6010    0.5400    0.3490 hc        1 MOL      0.072429
    165 H76        -3.7130   -0.8400   -1.9780 hc        1 MOL     -0.093363
    166 H77        -3.2470   -2.2450   -0.9360 hc        1 MOL     -0.093363
    167 N15        -6.1260    0.6670    2.0460 n         1 MOL     -0.015917
    168 C54        -6.7910    1.1590    3.2710 c3        1 MOL     -0.206916
    169 H78        -6.0620    1.6700    3.9000 h1        1 MOL      0.094139
    170 H79        -7.5860    1.8540    3.0000 h1        1 MOL      0.094139
    171 H80        -7.2150    0.3160    3.8180 h1        1 MOL      0.094139
    172 H81        -5.8410    1.3150    1.3270 hn        1 MOL      0.074969
    173 Ca1         1.2820   -0.5360   -1.7030 Ca        1 MOL      1.811145
    174 O23         1.4870    1.7630   -3.0890 oh        1 MOL     -0.891869
    175 H82         1.1920    1.5120   -3.9710 ho        1 MOL      0.428176
    176 H83         1.0920    2.6220   -2.9380 ho        1 MOL      0.428176
    177 O24         0.1250   -2.6920   -3.2520 oh        1 MOL     -0.891869
    178 H84         0.4540   -3.4720   -3.6900 ho        1 MOL      0.428176
    179 H85        -0.6100   -2.4020   -3.8030 ho        1 MOL      0.428176
@<TRIPOS>BOND
     1    1    2 1   
     2    1    4 1   
     3    1    5 1   
     4    1    6 1   
     5    2    3 2   
     6    2    7 1   
     7    7    8 1   
     8    7   15 1   
     9    8    9 1   
    10    8   11 1   
    11    8   16 1   
    12    9   10 2   
    13    9   19 1   
    14   11   12 1   
    15   11   17 1   
    16   11   18 1   
    17   12   13 1   
    18   12   14 1   
    19   19   20 1   
    20   19   28 1   
    21   20   21 1   
    22   20   23 1   
    23   20   29 1   
    24   21   22 2   
    25   21   41 1   
    26   23   24 1   
    27   23   30 1   
    28   23   31 1   
    29   24   25 1   
    30   24   32 1   
    31   24   33 1   
    32   25   26 1   
    33   25   34 1   
    34   25   35 1   
    35   26   27 1   
    36   26   36 1   
    37   26   37 1   
    38   27   38 1   
    39   27   39 1   
    40   27   40 1   
    41   41   42 1   
    42   41   49 1   
    43   42   43 1   
    44   42   45 1   
    45   42   50 1   
    46   43   44 2   
    47   43   53 1   
    48   45   46 1   
    49   45   51 1   
    50   45   52 1   
    51   46   47 1   
    52   46   48 1   
    53   53   54 1   
    54   53   57 1   
    55   54   55 1   
    56   54   58 1   
    57   54   59 1   
    58   55   56 2   
    59   55   60 1   
    60   60   61 1   
    61   60   68 1   
    62   61   62 1   
    63   61   64 1   
    64   61   69 1   
    65   62   63 2   
    66   62   74 1   
    67   64   65 1   
    68   64   70 1   
    69   64   71 1   
    70   65   66 1   
    71   65   67 2   
    72   66   72 1   
    73   66   73 1   
    74   74   75 1   
    75   74   78 1   
    76   75   76 1   
    77   75   79 1   
    78   75   80 1   
    79   76   77 2   
    80   76   81 1   
    81   81   82 1   
    82   81   93 1   
    83   82   83 1   
    84   82   85 1   
    85   82   94 1   
    86   83   84 2   
    87   83  102 1   
    88   85   86 1   
    89   85   95 1   
    90   85   96 1   
    91   86   87 ar  
    92   86   88 ar  
    93   87   89 ar  
    94   87   97 1   
    95   88   90 ar  
    96   88   98 1   
    97   89   91 ar  
    98   89   99 1   
    99   90   91 ar  
   100   90  100 1   
   101   91   92 1   
   102   92  101 1   
   103  102  103 1   
   104  102  110 1   
   105  103  104 1   
   106  103  106 1   
   107  103  111 1   
   108  104  105 2   
   109  104  121 1   
   110  106  107 1   
   111  106  108 1   
   112  106  112 1   
   113  107  109 1   
   114  107  113 1   
   115  107  114 1   
   116  108  115 1   
   117  108  116 1   
   118  108  117 1   
   119  109  118 1   
   120  109  119 1   
   121  109  120 1   
   122  121  122 1   
   123  121  127 1   
   124  122  123 1   
   125  122  125 1   
   126  122  128 1   
   127  123  124 2   
   128  123  132 1   
   129  125  126 1   
   130  125  129 1   
   131  125  130 1   
   132  126  131 1   
   133  132  133 1   
   134  132  137 1   
   135  133  134 1   
   136  133  136 1   
   137  133  138 1   
   138  134  135 2   
   139  134  142 1   
   140  136  139 1   
   141  136  140 1   
   142  136  141 1   
   143  142  143 1   
   144  142  147 1   
   145  143  144 1   
   146  143  146 1   
   147  143  148 1   
   148  144  145 2   
   149  144  152 1   
   150  146  149 1   
   151  146  150 1   
   152  146  151 1   
   153  152  153 1   
   154  152  161 1   
   155  153  154 1   
   156  153  156 1   
   157  153  162 1   
   158  154  155 2   
   159  154  167 1   
   160  156  157 1   
   161  156  163 1   
   162  156  164 1   
   163  157  158 1   
   164  157  165 1   
   165  157  166 1   
   166  158  159 1   
   167  158  160 1   
   168  167  168 1   
   169  167  172 1   
   170  168  169 1   
   171  168  170 1   
   172  168  171 1   
   173  174  175 1   
   174  174  176 1   
   175  177  178 1   
   176  177  179 1   
@<TRIPOS>SUBSTRUCTURE
     1 MOL         1 TEMP              0 ****  ****    0 ROOT
