@<TRIPOS>MOLECULE
MOL
  189   185     1     0     0
SMALL
resp


@<TRIPOS>ATOM
      1 C1          1.0430   -3.0210    6.0660 c3        1 MOL     -0.408835
      2 C2          1.2790   -2.6520    4.5730 c         1 MOL      0.628574
      3 O1          0.7730   -1.6130    4.1180 o         1 MOL     -0.535902
      4 H1          1.3540   -2.1910    6.6990 hc        1 MOL      0.105386
      5 H2         -0.0150   -3.2240    6.2280 hc        1 MOL      0.105386
      6 H3          1.6260   -3.9070    6.3180 hc        1 MOL      0.105386
      7 N1          2.1410   -3.4630    3.9360 n         1 MOL     -0.548023
      8 C3          2.6390   -3.3090    2.5490 c3        1 MOL      0.177036
      9 C4          2.2110   -4.5010    1.6610 c         1 MOL      0.367962
     10 O2          2.2490   -5.6380    2.0930 o         1 MOL     -0.572694
     11 C5          4.1480   -3.0960    2.5020 c3        1 MOL     -0.178226
     12 C6          4.5980   -2.9290    1.0750 c         1 MOL      0.750323
     13 O3          4.0580   -2.0780    0.3320 o         1 MOL     -0.638068
     14 O4          5.6270   -3.5720    0.7990 o         1 MOL     -0.638068
     15 H4          2.4590   -4.2840    4.4350 hn        1 MOL      0.326102
     16 H5          2.1720   -2.4300    2.1230 h1        1 MOL      0.038808
     17 H6          4.6030   -3.9400    3.0150 hc        1 MOL      0.003603
     18 H7          4.2690   -2.1560    3.0580 hc        1 MOL      0.003603
     19 N2          2.1060   -4.3070    0.3580 n         1 MOL     -0.095157
     20 C7          2.2090   -5.3330   -0.7260 c3        1 MOL     -0.160576
     21 C8          3.0790   -4.9080   -1.9340 c         1 MOL      0.431772
     22 O5          3.2030   -5.7670   -2.8100 o         1 MOL     -0.574975
     23 C9          0.8180   -5.7480   -1.1970 c3        1 MOL      0.314762
     24 C10        -0.1500   -4.7030   -1.8550 c3        1 MOL      0.039927
     25 C11         0.0870   -6.4490   -0.0590 c3        1 MOL     -0.174311
     26 C12        -1.2720   -5.3670   -2.7240 c3        1 MOL     -0.364158
     27 H8          2.1050   -3.3200    0.1610 hn        1 MOL      0.370030
     28 H9          2.5940   -6.2640   -0.3010 h1        1 MOL      0.105472
     29 H10         0.9680   -6.5540   -1.9180 hc        1 MOL     -0.063576
     30 H11         0.5230   -4.1030   -2.4740 hc        1 MOL      0.026876
     31 H12        -0.5550   -4.0790   -1.0640 hc        1 MOL      0.026876
     32 H13        -0.1690   -5.8120    0.7850 hc        1 MOL      0.015201
     33 H14        -0.7850   -7.0190   -0.3820 hc        1 MOL      0.015201
     34 H15         0.7400   -7.1950    0.3930 hc        1 MOL      0.015201
     35 H16        -1.8970   -4.5930   -3.1880 hc        1 MOL      0.087117
     36 H17        -0.9280   -5.8880   -3.6170 hc        1 MOL      0.087117
     37 H18        -1.9690   -5.9090   -2.0800 hc        1 MOL      0.087117
     38 N3          3.7330   -3.7650   -1.9970 n         1 MOL     -0.086246
     39 C13         4.4330   -3.3370   -3.2070 c3        1 MOL      0.152596
     40 C14         5.7930   -2.5310   -2.9460 c         1 MOL      0.313537
     41 O6          6.4470   -1.9920   -3.8600 o         1 MOL     -0.565746
     42 C15         3.4490   -2.6170   -4.1220 c3        1 MOL     -0.289378
     43 C16         2.8610   -1.3210   -3.6530 c         1 MOL      0.831194
     44 O7          3.2130   -0.8230   -2.4990 o         1 MOL     -0.709255
     45 O8          1.9260   -0.7620   -4.2530 o         1 MOL     -0.709255
     46 H19         3.6710   -3.0860   -1.2480 hn        1 MOL     -0.129759
     47 H20         4.7250   -4.2800   -3.6530 h1        1 MOL      0.039741
     48 H21         2.6350   -3.3240   -4.3060 hc        1 MOL      0.065116
     49 H22         3.9540   -2.4390   -5.0790 hc        1 MOL      0.065116
     50 N4          6.1250   -2.2510   -1.7250 n         1 MOL     -0.010302
     51 C17         7.3290   -1.5680   -1.2860 c3        1 MOL     -0.238334
     52 C18         7.4550   -0.1300   -1.6140 c         1 MOL      0.507504
     53 O9          8.5410    0.4320   -1.4020 o         1 MOL     -0.640253
     54 H23         5.5310   -2.6590   -1.0150 hn        1 MOL      0.052802
     55 H24         8.1910   -2.0790   -1.7170 h1        1 MOL      0.110048
     56 H25         7.4230   -1.6560   -0.2030 h1        1 MOL      0.110048
     57 N5          6.4560    0.5410   -2.1320 n         1 MOL      0.023639
     58 C19         6.5450    1.8860   -2.5960 c3        1 MOL     -0.033072
     59 C20         6.8730    2.9830   -1.5670 c         1 MOL      0.471349
     60 O10         7.5070    3.9780   -1.8920 o         1 MOL     -0.556854
     61 C21         5.2040    2.2500   -3.3400 c3        1 MOL     -0.233228
     62 C22         3.9430    2.1610   -2.4780 c         1 MOL      0.730911
     63 O11         4.0540    1.6920   -1.2870 o         1 MOL     -0.695241
     64 O12         2.8530    2.6500   -2.8740 o         1 MOL     -0.695241
     65 H26         5.5660    0.0890   -2.2560 hn        1 MOL      0.070401
     66 H27         7.3220    1.8090   -3.3660 h1        1 MOL      0.056169
     67 H28         4.9660    1.6260   -4.2000 hc        1 MOL      0.075610
     68 H29         5.2950    3.2820   -3.6900 hc        1 MOL      0.075610
     69 N6          6.3950    2.7900   -0.3030 n         1 MOL     -0.158078
     70 C23         6.5270    3.7890    0.8080 c3        1 MOL     -0.211975
     71 C24         5.1600    4.4190    1.3180 c         1 MOL      0.549085
     72 O13         5.3190    5.3190    2.1260 o         1 MOL     -0.607068
     73 H30         5.9410    1.9100   -0.1160 hn        1 MOL      0.077355
     74 H31         7.1540    4.5890    0.4170 h1        1 MOL      0.107150
     75 H32         7.0180    3.3770    1.6930 h1        1 MOL      0.107150
     76 N7          3.9670    4.0070    0.9270 n         1 MOL     -0.180000
     77 C25         2.6130    4.4450    1.3960 c3        1 MOL     -0.163302
     78 C26         1.7970    3.2340    1.7360 c         1 MOL      0.674946
     79 O14         1.9610    2.2550    1.0950 o         1 MOL     -0.556516
     80 C27         1.9810    5.3550    0.4200 c3        1 MOL      0.003104
     81 C28         2.8150    6.6120    0.0780 c3        1 MOL     -0.168416
     82 C29         2.0080    7.8370   -0.4070 c         1 MOL      0.525712
     83 N8          1.3920    7.6290   -1.6000 n         1 MOL     -0.750325
     84 O15         1.7420    8.8380    0.2980 o         1 MOL     -0.540523
     85 H33         3.9360    3.2590    0.2590 hn        1 MOL      0.137898
     86 H34         2.7470    5.0210    2.3110 h1        1 MOL      0.083000
     87 H35         1.0120    5.7160    0.7580 hc        1 MOL      0.065689
     88 H36         1.7430    4.8200   -0.5080 hc        1 MOL      0.065689
     89 H37         3.6830    6.3580   -0.5430 hc        1 MOL      0.074550
     90 H38         3.3490    6.9760    0.9510 hc        1 MOL      0.074550
     91 H39         1.6690    6.8170   -2.1220 hn        1 MOL      0.357993
     92 H40         0.8830    8.4220   -1.9630 hn        1 MOL      0.357993
     93 N9          1.0320    3.3940    2.7970 n         1 MOL     -0.568804
     94 C30        -0.0490    2.4030    3.1110 c3        1 MOL     -0.018805
     95 C31        -1.3110    2.9400    2.5110 c         1 MOL      0.563424
     96 O16        -1.5770    4.1260    2.5180 o         1 MOL     -0.585430
     97 C32        -0.3280    2.3350    4.6430 c3        1 MOL      0.329605
     98 C33        -1.3210    1.1780    5.1160 c3        1 MOL     -0.222411
     99 C34         0.9590    2.2240    5.5530 c3        1 MOL     -0.222411
    100 H41         0.8870    4.2830    3.2520 hn        1 MOL      0.311963
    101 H42         0.1720    1.3800    2.7980 h1        1 MOL      0.212687
    102 H43        -0.8590    3.2440    4.9240 hc        1 MOL     -0.065082
    103 H44        -1.3970    1.3300    6.1920 hc        1 MOL      0.033402
    104 H45        -2.2830    1.3790    4.6590 hc        1 MOL      0.033402
    105 H46        -0.8620    0.2280    4.8380 hc        1 MOL      0.033402
    106 H47         1.5560    3.1420    5.5420 hc        1 MOL      0.033402
    107 H48         0.6010    2.0290    6.5640 hc        1 MOL      0.033402
    108 H49         1.6030    1.3940    5.2840 hc        1 MOL      0.033402
    109 N10        -2.1950    2.1230    1.8760 n         1 MOL     -0.336359
    110 C35        -3.4680    2.5000    1.2460 c3        1 MOL      0.109858
    111 C36        -4.7280    1.5650    1.4960 c         1 MOL      0.339962
    112 O17        -4.5700    0.4890    2.0470 o         1 MOL     -0.367866
    113 C37        -3.2110    2.6540   -0.2480 c3        1 MOL     -0.120417
    114 C38        -3.3940    1.4560   -1.2280 c         1 MOL      0.707110
    115 N11        -2.3630    0.7820   -1.5980 n         1 MOL     -0.737001
    116 O18        -4.5190    1.1860   -1.5640 o         1 MOL     -0.586616
    117 H50        -1.9600    1.1400    1.9020 hn        1 MOL      0.128081
    118 H51        -3.7320    3.5090    1.5500 h1        1 MOL      0.057557
    119 H52        -2.2660    3.0870   -0.5740 hc        1 MOL      0.031300
    120 H53        -3.9370    3.3660   -0.6310 hc        1 MOL      0.031300
    121 H54        -1.4380    1.0300   -1.2880 hn        1 MOL      0.368534
    122 H55        -2.5420   -0.1150   -2.0130 hn        1 MOL      0.368534
    123 N12        -5.9000    2.0240    1.1840 n         1 MOL     -0.376099
    124 C39        -7.2090    1.3470    1.4340 c3        1 MOL      0.099970
    125 C40        -7.3510   -0.0730    0.9010 c         1 MOL      0.397830
    126 O19        -8.0870   -0.8450    1.5320 o         1 MOL     -0.572012
    127 C41        -8.3270    2.3080    0.8900 c3        1 MOL     -0.136193
    128 C42        -8.3560    2.6070   -0.6270 ca        1 MOL      0.030978
    129 C43        -8.7970    1.6300   -1.5640 ca        1 MOL     -0.139641
    130 C44        -7.9880    3.8310   -1.0850 ca        1 MOL     -0.139641
    131 C45        -8.8920    1.9660   -2.9580 ca        1 MOL     -0.329416
    132 C46        -7.8660    4.1210   -2.4370 ca        1 MOL     -0.329416
    133 C47        -8.2610    3.1900   -3.4010 ca        1 MOL      0.427384
    134 O20        -8.0880    3.4700   -4.7040 oh        1 MOL     -0.555281
    135 H56        -5.7890    2.8210    0.5730 hn        1 MOL      0.262757
    136 H57        -7.3700    1.2380    2.5060 h1        1 MOL      0.067447
    137 H58        -8.1340    3.3200    1.2450 hc        1 MOL      0.039333
    138 H59        -9.3140    1.9480    1.1980 hc        1 MOL      0.039333
    139 H60        -9.2320    0.7590   -1.1100 ha        1 MOL      0.121968
    140 H61        -7.6620    4.6100   -0.4050 ha        1 MOL      0.121968
    141 H62        -9.3630    1.3140   -3.6740 ha        1 MOL      0.159384
    142 H63        -7.4880    5.0670   -2.7870 ha        1 MOL      0.159384
    143 H64        -8.2180    2.7010   -5.2590 ho        1 MOL      0.425539
    144 N13        -6.7050   -0.4950   -0.2060 n         1 MOL      0.046973
    145 C48        -6.7410   -1.9240   -0.5870 c3        1 MOL     -0.234501
    146 C49        -5.7350   -2.8040    0.1780 c         1 MOL      0.583360
    147 O21        -5.7910   -3.9690    0.2110 o         1 MOL     -0.539398
    148 C50        -6.3160   -1.8890   -2.0480 c3        1 MOL      0.059233
    149 C51        -7.1380   -0.9850   -2.9790 c3        1 MOL     -0.362039
    150 C52        -6.8300   -1.3400   -4.4400 c         1 MOL      0.722279
    151 O22        -6.7000   -0.3240   -5.1180 o         1 MOL     -0.727669
    152 O23        -6.6950   -2.4990   -4.9200 o         1 MOL     -0.727669
    153 H65        -6.0710    0.1240   -0.6740 hn        1 MOL      0.169354
    154 H66        -7.7400   -2.3280   -0.3870 h1        1 MOL      0.095937
    155 H67        -6.2840   -2.9410   -2.3430 hc        1 MOL      0.029201
    156 H68        -5.2610   -1.6010   -2.0470 hc        1 MOL      0.029201
    157 H69        -6.8490    0.0510   -2.7960 hc        1 MOL      0.101646
    158 H70        -8.2110   -1.0720   -2.7770 hc        1 MOL      0.101646
    159 N14        -4.6990   -2.2300    0.8180 n         1 MOL     -0.282402
    160 C53        -3.4540   -2.8880    1.1910 c3        1 MOL     -0.129921
    161 C54        -3.5660   -3.4410    2.6460 c         1 MOL      0.470634
    162 O24        -3.2550   -4.6050    2.8770 o         1 MOL     -0.537884
    163 C55        -2.3780   -1.7880    1.0020 c3        1 MOL     -0.063088
    164 C56        -1.0200   -2.3420    1.2610 c3        1 MOL     -0.277989
    165 C57         0.0320   -1.4060    0.6300 c         1 MOL      0.923591
    166 O25         0.3070   -0.2870    1.1520 o         1 MOL     -0.894377
    167 O26         0.9110   -1.7990   -0.1670 o         1 MOL     -0.894377
    168 H71        -4.8190   -1.2360    0.9780 hn        1 MOL     -0.007853
    169 H72        -3.2690   -3.7650    0.5610 h1        1 MOL      0.166419
    170 H73        -2.5560   -0.9180    1.6310 hc        1 MOL      0.091356
    171 H74        -2.3590   -1.5100   -0.0520 hc        1 MOL      0.091356
    172 H75        -1.0060   -3.3440    0.8280 hc        1 MOL      0.063633
    173 H76        -0.8410   -2.3060    2.3390 hc        1 MOL      0.063633
    174 N15        -4.1760   -2.6590    3.5230 n         1 MOL     -0.140367
    175 C58        -4.6880   -3.1210    4.7960 c3        1 MOL     -0.042141
    176 H77        -4.4350   -2.4000    5.5720 h1        1 MOL      0.039216
    177 H78        -5.7710   -3.2240    4.7360 h1        1 MOL      0.039216
    178 H79        -4.2420   -4.0860    5.0390 h1        1 MOL      0.039216
    179 H80        -4.1990   -1.6770    3.2920 hn        1 MOL      0.161399
    180 Ca1         2.7340    0.0840    0.1000 Ca        1 MOL      1.746300
    181 O27         2.6240    0.0540    2.8780 oh        1 MOL     -0.858086
    182 H81         3.1200   -0.0540    3.6840 ho        1 MOL      0.421546
    183 H82         1.7910   -0.3960    3.0410 ho        1 MOL      0.421546
    184 O28         5.3290    0.6870    1.5870 oh        1 MOL     -0.858086
    185 H83         5.1080    0.5340    2.5170 ho        1 MOL      0.421546
    186 H84         6.2830    0.6320    1.5630 ho        1 MOL      0.421546
    187 O29         1.1150    0.9910   -1.8060 oh        1 MOL     -0.858086
    188 H85         1.5800    0.3110   -2.2790 ho        1 MOL      0.421546
    189 H86         1.4000    1.8100   -2.2060 ho        1 MOL      0.421546
@<TRIPOS>BOND
     1    1    2 1   
     2    1    4 1   
     3    1    5 1   
     4    1    6 1   
     5    2    3 2   
     6    2    7 1   
     7    7    8 1   
     8    7   15 1   
     9    8    9 1   
    10    8   11 1   
    11    8   16 1   
    12    9   10 2   
    13    9   19 1   
    14   11   12 1   
    15   11   17 1   
    16   11   18 1   
    17   12   13 1   
    18   12   14 1   
    19   19   20 1   
    20   19   27 1   
    21   20   21 1   
    22   20   23 1   
    23   20   28 1   
    24   21   22 2   
    25   21   38 1   
    26   23   24 1   
    27   23   25 1   
    28   23   29 1   
    29   24   26 1   
    30   24   30 1   
    31   24   31 1   
    32   25   32 1   
    33   25   33 1   
    34   25   34 1   
    35   26   35 1   
    36   26   36 1   
    37   26   37 1   
    38   38   39 1   
    39   38   46 1   
    40   39   40 1   
    41   39   42 1   
    42   39   47 1   
    43   40   41 2   
    44   40   50 1   
    45   42   43 1   
    46   42   48 1   
    47   42   49 1   
    48   43   44 1   
    49   43   45 1   
    50   50   51 1   
    51   50   54 1   
    52   51   52 1   
    53   51   55 1   
    54   51   56 1   
    55   52   53 2   
    56   52   57 1   
    57   57   58 1   
    58   57   65 1   
    59   58   59 1   
    60   58   61 1   
    61   58   66 1   
    62   59   60 2   
    63   59   69 1   
    64   61   62 1   
    65   61   67 1   
    66   61   68 1   
    67   62   63 1   
    68   62   64 1   
    69   69   70 1   
    70   69   73 1   
    71   70   71 1   
    72   70   74 1   
    73   70   75 1   
    74   71   72 2   
    75   71   76 1   
    76   76   77 1   
    77   76   85 1   
    78   77   78 1   
    79   77   80 1   
    80   77   86 1   
    81   78   79 2   
    82   78   93 1   
    83   80   81 1   
    84   80   87 1   
    85   80   88 1   
    86   81   82 1   
    87   81   89 1   
    88   81   90 1   
    89   82   83 1   
    90   82   84 2   
    91   83   91 1   
    92   83   92 1   
    93   93   94 1   
    94   93  100 1   
    95   94   95 1   
    96   94   97 1   
    97   94  101 1   
    98   95   96 2   
    99   95  109 1   
   100   97   98 1   
   101   97   99 1   
   102   97  102 1   
   103   98  103 1   
   104   98  104 1   
   105   98  105 1   
   106   99  106 1   
   107   99  107 1   
   108   99  108 1   
   109  109  110 1   
   110  109  117 1   
   111  110  111 1   
   112  110  113 1   
   113  110  118 1   
   114  111  112 2   
   115  111  123 1   
   116  113  114 1   
   117  113  119 1   
   118  113  120 1   
   119  114  115 1   
   120  114  116 2   
   121  115  121 1   
   122  115  122 1   
   123  123  124 1   
   124  123  135 1   
   125  124  125 1   
   126  124  127 1   
   127  124  136 1   
   128  125  126 2   
   129  125  144 1   
   130  127  128 1   
   131  127  137 1   
   132  127  138 1   
   133  128  129 ar  
   134  128  130 ar  
   135  129  131 ar  
   136  129  139 1   
   137  130  132 ar  
   138  130  140 1   
   139  131  133 ar  
   140  131  141 1   
   141  132  133 ar  
   142  132  142 1   
   143  133  134 1   
   144  134  143 1   
   145  144  145 1   
   146  144  153 1   
   147  145  146 1   
   148  145  148 1   
   149  145  154 1   
   150  146  147 2   
   151  146  159 1   
   152  148  149 1   
   153  148  155 1   
   154  148  156 1   
   155  149  150 1   
   156  149  157 1   
   157  149  158 1   
   158  150  151 1   
   159  150  152 1   
   160  159  160 1   
   161  159  168 1   
   162  160  161 1   
   163  160  163 1   
   164  160  169 1   
   165  161  162 2   
   166  161  174 1   
   167  163  164 1   
   168  163  170 1   
   169  163  171 1   
   170  164  165 1   
   171  164  172 1   
   172  164  173 1   
   173  165  166 1   
   174  165  167 1   
   175  174  175 1   
   176  174  179 1   
   177  175  176 1   
   178  175  177 1   
   179  175  178 1   
   180  181  182 1   
   181  181  183 1   
   182  184  185 1   
   183  184  186 1   
   184  187  188 1   
   185  187  189 1   
@<TRIPOS>SUBSTRUCTURE
     1 MOL         1 TEMP              0 ****  ****    0 ROOT
