@<TRIPOS>MOLECULE
MOL
  189   185     1     0     0
SMALL
resp


@<TRIPOS>ATOM
      1 C1          1.1840    4.4970   -4.8980 c3        1 MOL     -0.288495
      2 C2          1.1000    3.5690   -3.6400 c         1 MOL      0.750306
      3 O1          0.1550    3.6970   -2.8740 o         1 MOL     -0.609660
      4 H1          0.2140    4.9620   -5.0710 hc        1 MOL      0.065614
      5 H2          1.9320    5.2710   -4.7290 hc        1 MOL      0.065614
      6 H3          1.4630    3.9040   -5.7690 hc        1 MOL      0.065614
      7 N1          2.2370    2.9420   -3.3950 n         1 MOL     -0.646284
      8 C3          2.6080    2.3780   -2.1070 c3        1 MOL     -0.063414
      9 C4          3.0100    3.4120   -1.0950 c         1 MOL      0.638549
     10 O2          3.9390    4.1600   -1.3650 o         1 MOL     -0.582578
     11 C5          3.7910    1.5090   -2.2550 c3        1 MOL     -0.092604
     12 C6          4.1180    0.7450   -1.0190 c         1 MOL      0.775858
     13 O3          3.2620    0.6800   -0.1080 o         1 MOL     -0.706081
     14 O4          5.2600    0.2410   -1.0070 o         1 MOL     -0.706081
     15 H4          2.9750    2.9910   -4.0860 hn        1 MOL      0.364888
     16 H5          1.7490    1.7510   -1.8300 h1        1 MOL      0.037276
     17 H6          4.6870    2.0830   -2.4790 hc        1 MOL      0.035462
     18 H7          3.6510    0.9180   -3.1560 hc        1 MOL      0.035462
     19 N2          2.3580    3.5150    0.0680 n         1 MOL     -0.188060
     20 C7          2.5430    4.6780    0.9780 c3        1 MOL     -0.159482
     21 C8          3.3730    4.3740    2.2160 c         1 MOL      0.490350
     22 O5          4.0410    5.2310    2.7290 o         1 MOL     -0.576148
     23 C9          1.1800    5.2100    1.3820 c3        1 MOL      0.018365
     24 C10         0.3330    5.6330    0.1610 c3        1 MOL     -0.044641
     25 C11         1.0110    6.7180   -0.6900 c3        1 MOL     -0.058877
     26 C12         0.1760    7.2140   -1.8910 c3        1 MOL      0.102326
     27 N3          0.8910    8.4150   -2.4670 n4        1 MOL     -0.370003
     28 H8          1.7770    2.7540    0.3780 hn        1 MOL      0.228618
     29 H9          3.0890    5.4540    0.4330 h1        1 MOL      0.101216
     30 H10         1.0930    6.1310    1.9540 hc        1 MOL      0.020515
     31 H11         0.6010    4.5330    2.0020 hc        1 MOL      0.020515
     32 H12        -0.6560    5.9210    0.5210 hc        1 MOL      0.036583
     33 H13         0.2150    4.6960   -0.3870 hc        1 MOL      0.036583
     34 H14         2.0280    6.4770   -0.9880 hc        1 MOL      0.033320
     35 H15         1.1470    7.5520    0.0010 hc        1 MOL      0.033320
     36 H16        -0.8240    7.4790   -1.5480 hx        1 MOL      0.066625
     37 H17         0.0060    6.3860   -2.5660 hx        1 MOL      0.066625
     38 H18         0.5150    8.8360   -3.3070 hn        1 MOL      0.319605
     39 H19         0.8970    9.2470   -1.8930 hn        1 MOL      0.319605
     40 H20         1.8510    8.2190   -2.7150 hn        1 MOL      0.319605
     41 N4          3.4550    3.1290    2.5870 n         1 MOL     -0.236776
     42 C13         4.2810    2.6980    3.6810 c3        1 MOL      0.116507
     43 C14         5.4930    1.9020    3.2680 c         1 MOL      0.420017
     44 O6          6.3280    1.8480    4.1740 o         1 MOL     -0.559621
     45 C15         3.4810    1.8680    4.7470 c3        1 MOL     -0.395774
     46 C16         2.5290    0.7810    4.2090 c         1 MOL      0.818169
     47 O7          1.5140    0.4730    4.8890 o         1 MOL     -0.716193
     48 O8          2.7570    0.3000    3.0660 o         1 MOL     -0.716193
     49 H21         2.9070    2.4680    2.0530 hn        1 MOL      0.162316
     50 H22         4.6890    3.5230    4.2580 h1        1 MOL      0.101334
     51 H23         2.9080    2.5070    5.4230 hc        1 MOL      0.103470
     52 H24         4.2320    1.2830    5.2850 hc        1 MOL      0.103470
     53 N5          5.6810    1.4420    2.0470 n         1 MOL     -0.050627
     54 C17         6.9960    1.0990    1.4860 c3        1 MOL     -0.468766
     55 C18         7.3470   -0.3180    1.4970 c         1 MOL      0.650591
     56 O9          8.5030   -0.6730    1.1690 o         1 MOL     -0.589052
     57 H25         4.8780    1.3110    1.4480 hn        1 MOL      0.065813
     58 H26         7.7480    1.6460    2.0590 h1        1 MOL      0.190119
     59 H27         6.9290    1.3800    0.4350 h1        1 MOL      0.190119
     60 N6          6.3960   -1.2010    1.7620 n         1 MOL     -0.392595
     61 C19         6.5460   -2.6600    1.6280 c3        1 MOL      0.051682
     62 C20         6.6350   -3.2430    0.1800 c         1 MOL      0.389706
     63 O10         7.2060   -4.3260   -0.0100 o         1 MOL     -0.518992
     64 C21         5.4350   -3.3730    2.3470 c3        1 MOL     -0.162710
     65 C22         4.0540   -2.8850    1.9770 c         1 MOL      0.635235
     66 O11         3.1300   -2.7300    2.8230 o         1 MOL     -0.686315
     67 O12         3.7700   -2.5580    0.7860 o         1 MOL     -0.686315
     68 H28         5.5200   -0.8870    2.1390 hn        1 MOL      0.284135
     69 H29         7.4690   -3.0240    2.0840 h1        1 MOL      0.086289
     70 H30         5.5900   -3.3490    3.4220 hc        1 MOL      0.059239
     71 H31         5.5830   -4.3890    1.9640 hc        1 MOL      0.059239
     72 N7          6.2150   -2.5050   -0.8800 n         1 MOL     -0.134705
     73 C23         6.1860   -3.0000   -2.2640 c3        1 MOL     -0.239815
     74 C24         4.9720   -3.9090   -2.5410 c         1 MOL      0.529853
     75 O13         5.0740   -4.8000   -3.4010 o         1 MOL     -0.568240
     76 H32         5.9480   -1.5380   -0.8130 hn        1 MOL      0.250453
     77 H33         7.0770   -3.5890   -2.5050 h1        1 MOL      0.110099
     78 H34         6.2560   -2.1400   -2.9290 h1        1 MOL      0.110099
     79 N8          3.8810   -3.6820   -1.8520 n         1 MOL     -0.219718
     80 C25         2.4400   -4.1560   -2.1130 c3        1 MOL     -0.167458
     81 C26         1.3250   -3.1950   -1.9030 c         1 MOL      0.571855
     82 O14         1.4700   -2.3330   -1.0470 o         1 MOL     -0.588743
     83 C27         2.1210   -5.5390   -1.3270 c3        1 MOL      0.463851
     84 C28         3.0720   -6.7240   -1.5300 c3        1 MOL     -0.467555
     85 O15         2.1710   -5.3750    0.0480 oh        1 MOL     -0.629487
     86 H35         3.9480   -3.0260   -1.0900 hn        1 MOL      0.151159
     87 H36         2.4700   -4.4580   -3.1530 h1        1 MOL      0.061115
     88 H37         1.1240   -5.7880   -1.7050 h1        1 MOL     -0.032163
     89 H38         2.7320   -4.6160    0.2390 ho        1 MOL      0.429544
     90 H39         2.5830   -7.5990   -1.1050 hc        1 MOL      0.125137
     91 H40         3.2690   -6.9630   -2.5800 hc        1 MOL      0.125137
     92 H41         4.0090   -6.5380   -1.0040 hc        1 MOL      0.125137
     93 N9          0.3460   -3.2590   -2.7660 n         1 MOL     -0.341338
     94 C29        -0.7920   -2.3670   -2.6850 c3        1 MOL      0.121274
     95 C30        -2.0670   -2.9740   -2.0530 c         1 MOL      0.320411
     96 O16        -2.5000   -4.0750   -2.4010 o         1 MOL     -0.542902
     97 C31        -0.9640   -1.7810   -4.0920 c3        1 MOL      0.092289
     98 C32         0.2410   -0.9500   -4.6990 c3        1 MOL     -0.229343
     99 C33        -2.0650   -0.7450   -4.0550 c3        1 MOL     -0.223633
    100 C34         0.7450    0.2580   -3.9450 c3        1 MOL      0.164773
    101 H42         0.3210   -4.1220   -3.2960 hn        1 MOL      0.252386
    102 H43        -0.4980   -1.5530   -2.0230 h1        1 MOL      0.067051
    103 H44        -1.1780   -2.5670   -4.8240 hc        1 MOL      0.018911
    104 H45         0.0080   -0.4960   -5.6650 hc        1 MOL      0.039507
    105 H46         1.0000   -1.7250   -4.8570 hc        1 MOL      0.039507
    106 H47        -3.0320   -1.1530   -3.7490 hc        1 MOL      0.047130
    107 H48        -1.7960    0.0860   -3.3940 hc        1 MOL      0.047130
    108 H49        -2.2190   -0.3010   -5.0350 hc        1 MOL      0.047130
    109 H50        -0.0010    1.0430   -3.8140 hc        1 MOL     -0.007421
    110 H51         1.1850   -0.1510   -3.0360 hc        1 MOL     -0.007421
    111 H52         1.5450    0.6720   -4.5570 hc        1 MOL     -0.007421
    112 N10        -2.5900   -2.2760   -1.0860 n         1 MOL     -0.009156
    113 C35        -3.7450   -2.7180   -0.2580 c3        1 MOL      0.002109
    114 C36        -4.9950   -2.1930   -0.8970 c         1 MOL      0.397758
    115 O17        -4.9440   -1.3140   -1.7650 o         1 MOL     -0.329725
    116 C37        -3.7640   -2.2570    1.2030 c3        1 MOL      0.038500
    117 C38        -2.7510   -2.9640    2.0950 c3        1 MOL     -0.173449
    118 O18        -3.5400   -0.9030    1.2290 oh        1 MOL     -0.423631
    119 H53        -2.0320   -1.4930   -0.7710 hn        1 MOL      0.090607
    120 H54        -3.7690   -3.8040   -0.3270 h1        1 MOL      0.086738
    121 H55        -4.7570   -2.3300    1.6290 h1        1 MOL      0.043060
    122 H56        -2.6220   -0.8130    0.9560 ho        1 MOL      0.313753
    123 H57        -1.7200   -2.7470    1.8300 hc        1 MOL      0.060349
    124 H58        -2.8780   -2.7850    3.1590 hc        1 MOL      0.060349
    125 H59        -2.9530   -4.0340    2.0100 hc        1 MOL      0.060349
    126 N11        -6.2160   -2.5500   -0.4780 n         1 MOL     -0.447366
    127 C39        -7.4720   -1.7150   -0.6900 c3        1 MOL     -0.000948
    128 C40        -7.4200   -0.2480   -0.2760 c         1 MOL      0.169792
    129 O19        -8.0230    0.6130   -0.9740 o         1 MOL     -0.469028
    130 C41        -8.5990   -2.2820    0.2060 c3        1 MOL      0.185035
    131 C42        -8.9670   -3.7120   -0.2300 c3        1 MOL     -0.512211
    132 O20        -8.1690   -2.3120    1.5090 oh        1 MOL     -0.653380
    133 H60        -6.3480   -3.3610    0.0980 hn        1 MOL      0.296509
    134 H61        -7.6920   -1.6980   -1.7650 h1        1 MOL      0.151789
    135 H62        -9.4570   -1.6080    0.1940 h1        1 MOL      0.079657
    136 H63        -8.9190   -2.5100    2.0740 ho        1 MOL      0.440238
    137 H64        -9.1450   -3.6990   -1.3170 hc        1 MOL      0.153520
    138 H65        -8.2310   -4.4160    0.1590 hc        1 MOL      0.153520
    139 H66        -9.9190   -4.0220    0.1880 hc        1 MOL      0.153520
    140 N12        -6.6630    0.1080    0.7830 n         1 MOL      0.105252
    141 C43        -6.4780    1.4100    1.4010 c3        1 MOL     -0.131450
    142 C44        -5.6460    2.3130    0.5490 c         1 MOL      0.480135
    143 O21        -5.8370    3.5620    0.6080 o         1 MOL     -0.538134
    144 C45        -5.8520    1.1990    2.8390 c3        1 MOL     -0.195612
    145 C46        -6.4640    0.0200    3.6200 c3        1 MOL     -0.075082
    146 C47        -7.8980    0.2330    4.0780 c3        1 MOL      0.297777
    147 C48        -8.3870   -1.0270    4.7190 c3        1 MOL      0.142728
    148 N13        -9.5510   -0.7150    5.4960 n4        1 MOL     -0.324400
    149 H67        -6.2390   -0.6840    1.2630 hn        1 MOL      0.364541
    150 H68        -7.4380    1.9050    1.5440 h1        1 MOL      0.077552
    151 H69        -5.9610    2.0990    3.4560 hc        1 MOL      0.113037
    152 H70        -4.7880    1.0500    2.6600 hc        1 MOL      0.113037
    153 H71        -5.8650    0.0760    4.5270 hc        1 MOL      0.017454
    154 H72        -6.2980   -0.9290    3.1010 hc        1 MOL      0.017454
    155 H73        -8.4890    0.3180    3.1570 hc        1 MOL     -0.071998
    156 H74        -8.1030    1.1090    4.6870 hc        1 MOL     -0.071998
    157 H75        -7.6140   -1.4020    5.3880 hx        1 MOL      0.006145
    158 H76        -8.6260   -1.7960    3.9850 hx        1 MOL      0.006145
    159 H77        -9.3920    0.0200    6.1740 hn        1 MOL      0.297659
    160 H78       -10.3550   -0.4410    4.9320 hn        1 MOL      0.297659
    161 H79        -9.8300   -1.5060    6.0610 hn        1 MOL      0.297659
    162 N14        -4.7600    1.7090   -0.3090 n         1 MOL      0.002187
    163 C49        -3.8350    2.4800   -1.2290 c3        1 MOL     -0.085932
    164 C50        -4.3120    2.3860   -2.6860 c         1 MOL      0.419951
    165 O22        -4.1260    3.3480   -3.4660 o         1 MOL     -0.547033
    166 C51        -2.4390    1.8190   -1.1750 c3        1 MOL      0.048555
    167 C52        -1.8070    1.8400    0.2500 c3        1 MOL     -0.048099
    168 C53        -0.6340    0.8130    0.4570 c         1 MOL      0.602995
    169 O23         0.4210    1.2150    0.9390 o         1 MOL     -0.669693
    170 O24        -0.7950   -0.3730    0.1400 o         1 MOL     -0.669693
    171 H80        -4.6840    0.7130   -0.2070 hn        1 MOL     -0.389223
    172 H81        -3.7640    3.5390   -0.9870 h1        1 MOL      0.105380
    173 H82        -1.6990    2.1910   -1.8770 hc        1 MOL      0.060582
    174 H83        -2.5700    0.7440   -1.3470 hc        1 MOL      0.060582
    175 H84        -2.5270    1.5640    1.0120 hc        1 MOL      0.012418
    176 H85        -1.5280    2.8830    0.4100 hc        1 MOL      0.012418
    177 N15        -5.0080    1.3170   -3.1300 n         1 MOL     -0.107790
    178 C54        -5.5370    1.1810   -4.4800 c3        1 MOL     -0.142420
    179 H86        -6.5140    1.6600   -4.5360 h1        1 MOL      0.068026
    180 H87        -4.8580    1.6570   -5.1870 h1        1 MOL      0.068026
    181 H88        -5.6350    0.1240   -4.7270 h1        1 MOL      0.068026
    182 H89        -5.0270    0.4800   -2.5630 hn        1 MOL      0.187412
    183 Ca1         1.6190   -1.0460    1.2600 Ca        1 MOL      1.736745
    184 O25         0.6640   -3.4710    1.5900 oh        1 MOL     -0.843916
    185 H90         0.4450   -3.5430    2.5160 ho        1 MOL      0.395871
    186 H91         0.9700   -4.3490    1.3430 ho        1 MOL      0.395871
    187 O26         0.0020   -0.8940    3.2900 oh        1 MOL     -0.843916
    188 H92         0.5470   -0.3630    3.8870 ho        1 MOL      0.395871
    189 H93        -0.8950   -0.7470    3.6040 ho        1 MOL      0.395871
@<TRIPOS>BOND
     1    1    2 1   
     2    1    4 1   
     3    1    5 1   
     4    1    6 1   
     5    2    3 2   
     6    2    7 1   
     7    7    8 1   
     8    7   15 1   
     9    8    9 1   
    10    8   11 1   
    11    8   16 1   
    12    9   10 2   
    13    9   19 1   
    14   11   12 1   
    15   11   17 1   
    16   11   18 1   
    17   12   13 1   
    18   12   14 1   
    19   19   20 1   
    20   19   28 1   
    21   20   21 1   
    22   20   23 1   
    23   20   29 1   
    24   21   22 2   
    25   21   41 1   
    26   23   24 1   
    27   23   30 1   
    28   23   31 1   
    29   24   25 1   
    30   24   32 1   
    31   24   33 1   
    32   25   26 1   
    33   25   34 1   
    34   25   35 1   
    35   26   27 1   
    36   26   36 1   
    37   26   37 1   
    38   27   38 1   
    39   27   39 1   
    40   27   40 1   
    41   41   42 1   
    42   41   49 1   
    43   42   43 1   
    44   42   45 1   
    45   42   50 1   
    46   43   44 2   
    47   43   53 1   
    48   45   46 1   
    49   45   51 1   
    50   45   52 1   
    51   46   47 1   
    52   46   48 1   
    53   53   54 1   
    54   53   57 1   
    55   54   55 1   
    56   54   58 1   
    57   54   59 1   
    58   55   56 2   
    59   55   60 1   
    60   60   61 1   
    61   60   68 1   
    62   61   62 1   
    63   61   64 1   
    64   61   69 1   
    65   62   63 2   
    66   62   72 1   
    67   64   65 1   
    68   64   70 1   
    69   64   71 1   
    70   65   66 1   
    71   65   67 1   
    72   72   73 1   
    73   72   76 1   
    74   73   74 1   
    75   73   77 1   
    76   73   78 1   
    77   74   75 2   
    78   74   79 1   
    79   79   80 1   
    80   79   86 1   
    81   80   81 1   
    82   80   83 1   
    83   80   87 1   
    84   81   82 2   
    85   81   93 1   
    86   83   84 1   
    87   83   85 1   
    88   83   88 1   
    89   84   90 1   
    90   84   91 1   
    91   84   92 1   
    92   85   89 1   
    93   93   94 1   
    94   93  101 1   
    95   94   95 1   
    96   94   97 1   
    97   94  102 1   
    98   95   96 2   
    99   95  112 1   
   100   97   98 1   
   101   97   99 1   
   102   97  103 1   
   103   98  100 1   
   104   98  104 1   
   105   98  105 1   
   106   99  106 1   
   107   99  107 1   
   108   99  108 1   
   109  100  109 1   
   110  100  110 1   
   111  100  111 1   
   112  112  113 1   
   113  112  119 1   
   114  113  114 1   
   115  113  116 1   
   116  113  120 1   
   117  114  115 2   
   118  114  126 1   
   119  116  117 1   
   120  116  118 1   
   121  116  121 1   
   122  117  123 1   
   123  117  124 1   
   124  117  125 1   
   125  118  122 1   
   126  126  127 1   
   127  126  133 1   
   128  127  128 1   
   129  127  130 1   
   130  127  134 1   
   131  128  129 2   
   132  128  140 1   
   133  130  131 1   
   134  130  132 1   
   135  130  135 1   
   136  131  137 1   
   137  131  138 1   
   138  131  139 1   
   139  132  136 1   
   140  140  141 1   
   141  140  149 1   
   142  141  142 1   
   143  141  144 1   
   144  141  150 1   
   145  142  143 2   
   146  142  162 1   
   147  144  145 1   
   148  144  151 1   
   149  144  152 1   
   150  145  146 1   
   151  145  153 1   
   152  145  154 1   
   153  146  147 1   
   154  146  155 1   
   155  146  156 1   
   156  147  148 1   
   157  147  157 1   
   158  147  158 1   
   159  148  159 1   
   160  148  160 1   
   161  148  161 1   
   162  162  163 1   
   163  162  171 1   
   164  163  164 1   
   165  163  166 1   
   166  163  172 1   
   167  164  165 2   
   168  164  177 1   
   169  166  167 1   
   170  166  173 1   
   171  166  174 1   
   172  167  168 1   
   173  167  175 1   
   174  167  176 1   
   175  168  169 1   
   176  168  170 1   
   177  177  178 1   
   178  177  182 1   
   179  178  179 1   
   180  178  180 1   
   181  178  181 1   
   182  184  185 1   
   183  184  186 1   
   184  187  188 1   
   185  187  189 1   
@<TRIPOS>SUBSTRUCTURE
     1 MOL         1 TEMP              0 ****  ****    0 ROOT
