@<TRIPOS>MOLECULE
MOL
  189   185     1     0     0
SMALL
resp


@<TRIPOS>ATOM
      1 C1          0.3720   -1.6430    6.3420 c3        1 MOL     -0.531176
      2 C2          0.6200   -1.7310    4.8880 c         1 MOL      0.828587
      3 O1          0.7110   -0.7170    4.2190 o         1 MOL     -0.609917
      4 H1          0.2290   -2.6440    6.7460 hc        1 MOL      0.130281
      5 H2          1.2270   -1.1730    6.8280 hc        1 MOL      0.130281
      6 H3         -0.5230   -1.0470    6.5220 hc        1 MOL      0.130281
      7 N1          0.9040   -2.9490    4.3940 n         1 MOL     -0.627451
      8 C3          1.5940   -3.0890    3.0890 c3        1 MOL      0.232218
      9 C4          1.4110   -4.3940    2.2640 c         1 MOL      0.383839
     10 O2          1.2370   -5.4660    2.8840 o         1 MOL     -0.579497
     11 C5          3.0690   -2.8740    3.4270 c3        1 MOL     -0.368448
     12 C6          3.9060   -2.1950    2.3700 c         1 MOL      0.672422
     13 O3          5.0100   -1.7720    2.7010 o         1 MOL     -0.657186
     14 O4          3.4970   -2.1320    1.1820 o         1 MOL     -0.657186
     15 H4          1.0640   -3.7310    5.0160 hn        1 MOL      0.322499
     16 H5          1.3560   -2.2380    2.4510 h1        1 MOL      0.062850
     17 H6          3.5230   -3.8630    3.4770 hc        1 MOL      0.100924
     18 H7          3.0820   -2.4430    4.4320 hc        1 MOL      0.100924
     19 N2          1.3120   -4.2680    0.9860 n         1 MOL     -0.231078
     20 C7          1.5160   -5.4000    0.0880 c3        1 MOL      0.009228
     21 C8          2.8040   -5.3620   -0.7730 c         1 MOL      0.545881
     22 O5          2.9630   -6.2290   -1.6130 o         1 MOL     -0.562974
     23 C9          0.1990   -5.7970   -0.7210 c3        1 MOL      0.468975
     24 C10        -0.3360   -4.8040   -1.8430 c3        1 MOL     -0.078187
     25 C11        -1.0350   -6.2430    0.0560 c3        1 MOL     -0.517095
     26 C12        -0.9760   -5.5180   -3.0490 c3        1 MOL     -0.146152
     27 H8          1.2790   -3.3450    0.5730 hn        1 MOL      0.133849
     28 H9          1.7370   -6.2680    0.7080 h1        1 MOL      0.034470
     29 H10         0.5470   -6.7000   -1.2220 hc        1 MOL     -0.121841
     30 H11         0.5520   -4.2860   -2.1990 hc        1 MOL      0.052129
     31 H12        -1.0950   -4.1340   -1.4240 hc        1 MOL      0.052129
     32 H13        -1.4430   -5.4220    0.6360 hc        1 MOL      0.103467
     33 H14        -1.9220   -6.5770   -0.4820 hc        1 MOL      0.103467
     34 H15        -0.7700   -7.0550    0.7360 hc        1 MOL      0.103467
     35 H16        -0.3380   -6.3480   -3.3550 hc        1 MOL      0.034834
     36 H17        -1.9550   -5.9080   -2.7940 hc        1 MOL      0.034834
     37 H18        -1.0230   -4.7840   -3.8600 hc        1 MOL      0.034834
     38 N3          3.7010   -4.3630   -0.6010 n         1 MOL     -0.562488
     39 C13         4.8990   -4.2350   -1.4440 c3        1 MOL      0.239685
     40 C14         6.1420   -3.6740   -0.7410 c         1 MOL      0.372235
     41 O6          7.1730   -4.3540   -0.7540 o         1 MOL     -0.592855
     42 C15         4.4980   -3.3620   -2.7140 c3        1 MOL     -0.287350
     43 C16         3.5760   -2.1210   -2.4970 c         1 MOL      0.714872
     44 O7          4.0160   -1.2110   -1.7120 o         1 MOL     -0.630883
     45 O8          2.6130   -1.9770   -3.2710 o         1 MOL     -0.630883
     46 H19         3.5350   -3.6500    0.0930 hn        1 MOL      0.347522
     47 H20         5.1460   -5.2250   -1.8120 h1        1 MOL      0.037688
     48 H21         3.8570   -4.0500   -3.2650 hc        1 MOL      0.061450
     49 H22         5.3870   -3.2070   -3.3200 hc        1 MOL      0.061450
     50 N4          6.1100   -2.4580   -0.2100 n         1 MOL     -0.009496
     51 C17         7.2940   -1.7300    0.3130 c3        1 MOL     -0.005101
     52 C18         7.6260   -0.4990   -0.4590 c         1 MOL      0.556152
     53 O9          8.8230   -0.3160   -0.5940 o         1 MOL     -0.622020
     54 H23         5.2580   -1.9190   -0.3390 hn        1 MOL     -0.087742
     55 H24         8.1600   -2.3840    0.3900 h1        1 MOL      0.042089
     56 H25         7.1070   -1.3070    1.3010 h1        1 MOL      0.042089
     57 N5          6.6850    0.2830   -0.9450 n         1 MOL     -0.347633
     58 C19         6.9950    1.5000   -1.7280 c3        1 MOL     -0.032428
     59 C20         7.0680    2.7370   -0.8150 c         1 MOL      0.514244
     60 O10         7.3160    3.7320   -1.4170 o         1 MOL     -0.568017
     61 C21         5.9320    1.8130   -2.7980 c3        1 MOL     -0.116770
     62 C22         4.5070    1.8710   -2.3080 c         1 MOL      0.676589
     63 O11         4.2650    1.6250   -1.1160 o         1 MOL     -0.692916
     64 O12         3.5910    2.0870   -3.1940 o         1 MOL     -0.692916
     65 H26         5.7040    0.0300   -0.8910 hn        1 MOL      0.253429
     66 H27         7.9600    1.4330   -2.2360 h1        1 MOL      0.103923
     67 H28         6.0090    1.1700   -3.6720 hc        1 MOL      0.041624
     68 H29         6.0840    2.7680   -3.3020 hc        1 MOL      0.041624
     69 N6          6.7970    2.6870    0.4700 n         1 MOL     -0.422212
     70 C23         6.8860    3.9150    1.2330 c3        1 MOL     -0.112413
     71 C24         5.5690    4.5830    1.2990 c         1 MOL      0.493199
     72 O13         5.5040    5.6270    1.9250 o         1 MOL     -0.602344
     73 H30         6.2160    1.8870    0.6700 hn        1 MOL      0.270793
     74 H31         7.6430    4.6030    0.8460 h1        1 MOL      0.108966
     75 H32         7.2160    3.6950    2.2460 h1        1 MOL      0.108966
     76 N7          4.4700    4.0350    0.7620 n         1 MOL     -0.309992
     77 C25         3.1020    4.6230    0.9560 c3        1 MOL      0.010437
     78 C26         1.9240    3.6320    0.9850 c         1 MOL      0.506227
     79 O14         2.0420    2.5990    0.3820 o         1 MOL     -0.610245
     80 C27         2.7470    5.7400   -0.0460 c3        1 MOL      0.291626
     81 C28         3.2430    5.5980   -1.5210 c3        1 MOL     -0.321054
     82 C29         2.7640    6.7790   -2.4200 c         1 MOL      0.645364
     83 N8          3.0300    6.8220   -3.7620 n         1 MOL     -0.768299
     84 O15         2.2200    7.7640   -1.9120 o         1 MOL     -0.568117
     85 H33         4.5740    3.1270    0.3460 hn        1 MOL      0.301816
     86 H34         2.9700    5.0120    1.9640 h1        1 MOL      0.021042
     87 H35         3.0470    6.6520    0.4720 hc        1 MOL     -0.049749
     88 H36         1.6750    5.8860    0.0680 hc        1 MOL     -0.049749
     89 H37         2.9560    4.6810   -2.0390 hc        1 MOL      0.117795
     90 H38         4.3260    5.5500   -1.4830 hc        1 MOL      0.117795
     91 H39         3.7640    6.2110   -4.0930 hn        1 MOL      0.340824
     92 H40         2.9270    7.7300   -4.1960 hn        1 MOL      0.340824
     93 N9          0.8090    3.9150    1.7010 n         1 MOL     -0.489185
     94 C30        -0.3940    3.1380    1.9560 c3        1 MOL     -0.012105
     95 C31        -1.2960    3.4000    0.7640 c         1 MOL      0.585156
     96 O16        -1.7550    4.5170    0.5850 o         1 MOL     -0.606887
     97 C32        -1.0650    3.4960    3.2840 c3        1 MOL      0.156124
     98 C33        -2.0070    2.3120    3.5800 c3        1 MOL     -0.372212
     99 C34        -0.1220    3.5050    4.4050 c3        1 MOL     -0.372212
    100 H41         0.8740    4.8140    2.1470 hn        1 MOL      0.300530
    101 H42        -0.1330    2.0790    1.9020 h1        1 MOL      0.177688
    102 H43        -1.6790    4.3860    3.1160 hc        1 MOL      0.013975
    103 H44        -2.7320    2.0850    2.7950 hc        1 MOL      0.096303
    104 H45        -1.4700    1.3670    3.5900 hc        1 MOL      0.096303
    105 H46        -2.5260    2.4180    4.5390 hc        1 MOL      0.096303
    106 H47        -0.6850    3.5380    5.3410 hc        1 MOL      0.096303
    107 H48         0.4620    2.5880    4.5220 hc        1 MOL      0.096303
    108 H49         0.5050    4.3850    4.2140 hc        1 MOL      0.096303
    109 N10        -1.6570    2.3190    0.1210 n         1 MOL     -0.156801
    110 C35        -2.7300    2.3780   -0.8900 c3        1 MOL      0.002522
    111 C36        -4.1530    2.0240   -0.3160 c         1 MOL      0.426202
    112 O17        -4.3750    1.5000    0.7360 o         1 MOL     -0.397461
    113 C37        -2.1970    1.4230   -2.0220 c3        1 MOL      0.066584
    114 C38        -2.8530    1.5850   -3.3940 c         1 MOL      0.558335
    115 N11        -2.5970    0.6660   -4.3500 n         1 MOL     -0.665509
    116 O18        -3.5950    2.5240   -3.6360 o         1 MOL     -0.580104
    117 H50        -1.2500    1.4330    0.3990 hn        1 MOL      0.041046
    118 H51        -2.8540    3.3420   -1.3860 h1        1 MOL      0.054490
    119 H52        -2.4050    0.4100   -1.7000 hc        1 MOL      0.033410
    120 H53        -1.1230    1.5300   -2.1590 hc        1 MOL      0.033410
    121 H54        -2.0520   -0.1710   -4.1960 hn        1 MOL      0.334856
    122 H55        -3.1730    0.7190   -5.1800 hn        1 MOL      0.334856
    123 N12        -5.2340    2.0890   -1.1700 n         1 MOL     -0.500659
    124 C39        -6.5550    1.7790   -0.7880 c3        1 MOL      0.231549
    125 C40        -6.8150    0.2260   -0.6480 c         1 MOL      0.549710
    126 O19        -7.4970   -0.2360    0.2630 o         1 MOL     -0.516202
    127 C41        -7.7070    2.3390   -1.6870 c3        1 MOL     -0.111046
    128 C42        -9.1410    2.1620   -1.1620 ca        1 MOL      0.023075
    129 C43        -9.6220    2.9980   -0.0630 ca        1 MOL     -0.206095
    130 C44        -9.9670    1.1520   -1.6890 ca        1 MOL     -0.206095
    131 C45       -10.8850    2.7160    0.5320 ca        1 MOL     -0.179374
    132 C46       -11.1190    0.8000   -0.9950 ca        1 MOL     -0.179374
    133 C47       -11.5890    1.5580    0.1410 ca        1 MOL      0.248862
    134 O20       -12.6900    1.1800    0.8910 oh        1 MOL     -0.481075
    135 H56        -5.0720    2.4950   -2.0810 hn        1 MOL      0.259715
    136 H57        -6.7440    2.1810    0.2090 h1        1 MOL      0.047703
    137 H58        -7.5650    1.8530   -2.6490 hc        1 MOL      0.038631
    138 H59        -7.4860    3.3990   -1.8160 hc        1 MOL      0.038631
    139 H60        -9.0000    3.8240    0.2460 ha        1 MOL      0.153671
    140 H61        -9.6050    0.4040   -2.3740 ha        1 MOL      0.153671
    141 H62       -11.2410    3.2850    1.3730 ha        1 MOL      0.125072
    142 H63       -11.7400    0.0140   -1.3940 ha        1 MOL      0.125072
    143 H64       -13.2140    0.5180    0.4340 ho        1 MOL      0.353530
    144 N13        -6.0000   -0.5540   -1.3810 n         1 MOL     -0.486173
    145 C48        -5.9300   -2.0080   -1.2510 c3        1 MOL      0.086742
    146 C49        -5.1980   -2.4520    0.0550 c         1 MOL      0.502304
    147 O21        -5.1540   -3.6330    0.4900 o         1 MOL     -0.544691
    148 C50        -5.3470   -2.7690   -2.4890 c3        1 MOL      0.009053
    149 C51        -3.8770   -2.4880   -2.9580 c3        1 MOL     -0.008946
    150 C52        -3.4320   -3.2420   -4.2140 c         1 MOL      0.743365
    151 O22        -4.0720   -4.2150   -4.6530 o         1 MOL     -0.728938
    152 O23        -2.5140   -2.7590   -4.9180 o         1 MOL     -0.728938
    153 H65        -5.4490   -0.0990   -2.0870 hn        1 MOL      0.296386
    154 H66        -6.9360   -2.3820   -1.1100 h1        1 MOL      0.037665
    155 H67        -5.9230   -2.4670   -3.3700 hc        1 MOL     -0.009130
    156 H68        -5.4320   -3.8310   -2.2500 hc        1 MOL     -0.009130
    157 H69        -3.2690   -2.7400   -2.0930 hc        1 MOL     -0.064274
    158 H70        -3.6980   -1.4410   -3.2250 hc        1 MOL     -0.064274
    159 N14        -4.6320   -1.4870    0.7870 n         1 MOL     -0.419315
    160 C53        -3.8340   -1.6920    2.0310 c3        1 MOL      0.026291
    161 C54        -4.4350   -1.0490    3.2480 c         1 MOL      0.373857
    162 O24        -3.9760   -1.2820    4.3590 o         1 MOL     -0.543049
    163 C55        -2.4080   -1.2020    1.7620 c3        1 MOL      0.157604
    164 C56        -1.6610   -1.8890    0.6310 c3        1 MOL     -0.096005
    165 C57        -0.2460   -1.2460    0.4520 c         1 MOL      0.679766
    166 O25         0.6680   -1.8630   -0.0790 o         1 MOL     -0.729606
    167 O26        -0.1250   -0.0580    0.7740 o         1 MOL     -0.729606
    168 H71        -4.7380   -0.5150    0.5390 hn        1 MOL      0.162591
    169 H72        -3.7890   -2.7340    2.3640 h1        1 MOL      0.096531
    170 H73        -1.8370   -1.4680    2.6460 hc        1 MOL     -0.004584
    171 H74        -2.3930   -0.1150    1.6900 hc        1 MOL     -0.004584
    172 H75        -2.1930   -1.7180   -0.3090 hc        1 MOL      0.055512
    173 H76        -1.6710   -2.9570    0.8500 hc        1 MOL      0.055512
    174 N15        -5.4340   -0.1470    3.1390 n         1 MOL     -0.090077
    175 C58        -5.9160    0.6220    4.2320 c3        1 MOL     -0.095252
    176 H77        -6.0210    1.6620    3.9250 h1        1 MOL      0.047453
    177 H78        -6.8850    0.2360    4.5480 h1        1 MOL      0.047453
    178 H79        -5.2110    0.5580    5.0610 h1        1 MOL      0.047453
    179 H80        -5.7400    0.0520    2.1980 hn        1 MOL      0.100901
    180 Ca1         2.4770    0.0190   -0.0080 Ca        1 MOL      1.762372
    181 O27         2.2790    0.4670    2.4630 oh        1 MOL     -0.816561
    182 H81         1.6460    0.3170    3.1620 ho        1 MOL      0.382800
    183 H82         3.0780    0.7520    2.9140 ho        1 MOL      0.382800
    184 O28         4.8860    0.6280    1.5280 oh        1 MOL     -0.816561
    185 H83         5.0350   -0.2880    1.7670 ho        1 MOL      0.382800
    186 H84         4.7820    1.0870    2.3550 ho        1 MOL      0.382800
    187 O29         1.6490    0.3890   -2.4260 oh        1 MOL     -0.816561
    188 H85         2.3760    0.8510   -2.8410 ho        1 MOL      0.382800
    189 H86         1.5620   -0.4210   -2.9380 ho        1 MOL      0.382800
@<TRIPOS>BOND
     1    1    2 1   
     2    1    4 1   
     3    1    5 1   
     4    1    6 1   
     5    2    3 2   
     6    2    7 1   
     7    7    8 1   
     8    7   15 1   
     9    8    9 1   
    10    8   11 1   
    11    8   16 1   
    12    9   10 2   
    13    9   19 1   
    14   11   12 1   
    15   11   17 1   
    16   11   18 1   
    17   12   13 1   
    18   12   14 1   
    19   19   20 1   
    20   19   27 1   
    21   20   21 1   
    22   20   23 1   
    23   20   28 1   
    24   21   22 2   
    25   21   38 1   
    26   23   24 1   
    27   23   25 1   
    28   23   29 1   
    29   24   26 1   
    30   24   30 1   
    31   24   31 1   
    32   25   32 1   
    33   25   33 1   
    34   25   34 1   
    35   26   35 1   
    36   26   36 1   
    37   26   37 1   
    38   38   39 1   
    39   38   46 1   
    40   39   40 1   
    41   39   42 1   
    42   39   47 1   
    43   40   41 2   
    44   40   50 1   
    45   42   43 1   
    46   42   48 1   
    47   42   49 1   
    48   43   44 1   
    49   43   45 1   
    50   50   51 1   
    51   50   54 1   
    52   51   52 1   
    53   51   55 1   
    54   51   56 1   
    55   52   53 2   
    56   52   57 1   
    57   57   58 1   
    58   57   65 1   
    59   58   59 1   
    60   58   61 1   
    61   58   66 1   
    62   59   60 2   
    63   59   69 1   
    64   61   62 1   
    65   61   67 1   
    66   61   68 1   
    67   62   63 1   
    68   62   64 1   
    69   69   70 1   
    70   69   73 1   
    71   70   71 1   
    72   70   74 1   
    73   70   75 1   
    74   71   72 2   
    75   71   76 1   
    76   76   77 1   
    77   76   85 1   
    78   77   78 1   
    79   77   80 1   
    80   77   86 1   
    81   78   79 2   
    82   78   93 1   
    83   80   81 1   
    84   80   87 1   
    85   80   88 1   
    86   81   82 1   
    87   81   89 1   
    88   81   90 1   
    89   82   83 1   
    90   82   84 2   
    91   83   91 1   
    92   83   92 1   
    93   93   94 1   
    94   93  100 1   
    95   94   95 1   
    96   94   97 1   
    97   94  101 1   
    98   95   96 2   
    99   95  109 1   
   100   97   98 1   
   101   97   99 1   
   102   97  102 1   
   103   98  103 1   
   104   98  104 1   
   105   98  105 1   
   106   99  106 1   
   107   99  107 1   
   108   99  108 1   
   109  109  110 1   
   110  109  117 1   
   111  110  111 1   
   112  110  113 1   
   113  110  118 1   
   114  111  112 2   
   115  111  123 1   
   116  113  114 1   
   117  113  119 1   
   118  113  120 1   
   119  114  115 1   
   120  114  116 2   
   121  115  121 1   
   122  115  122 1   
   123  123  124 1   
   124  123  135 1   
   125  124  125 1   
   126  124  127 1   
   127  124  136 1   
   128  125  126 2   
   129  125  144 1   
   130  127  128 1   
   131  127  137 1   
   132  127  138 1   
   133  128  129 ar  
   134  128  130 ar  
   135  129  131 ar  
   136  129  139 1   
   137  130  132 ar  
   138  130  140 1   
   139  131  133 ar  
   140  131  141 1   
   141  132  133 ar  
   142  132  142 1   
   143  133  134 1   
   144  134  143 1   
   145  144  145 1   
   146  144  153 1   
   147  145  146 1   
   148  145  148 1   
   149  145  154 1   
   150  146  147 2   
   151  146  159 1   
   152  148  149 1   
   153  148  155 1   
   154  148  156 1   
   155  149  150 1   
   156  149  157 1   
   157  149  158 1   
   158  150  151 1   
   159  150  152 1   
   160  159  160 1   
   161  159  168 1   
   162  160  161 1   
   163  160  163 1   
   164  160  169 1   
   165  161  162 2   
   166  161  174 1   
   167  163  164 1   
   168  163  170 1   
   169  163  171 1   
   170  164  165 1   
   171  164  172 1   
   172  164  173 1   
   173  165  166 1   
   174  165  167 1   
   175  174  175 1   
   176  174  179 1   
   177  175  176 1   
   178  175  177 1   
   179  175  178 1   
   180  181  182 1   
   181  181  183 1   
   182  184  185 1   
   183  184  186 1   
   184  187  188 1   
   185  187  189 1   
@<TRIPOS>SUBSTRUCTURE
     1 MOL         1 TEMP              0 ****  ****    0 ROOT
