@<TRIPOS>MOLECULE
MOL
  176   174     1     0     0
SMALL
resp


@<TRIPOS>ATOM
      1 C1          0.7290    3.2350    6.3400 c3        1 MOL     -0.305878
      2 C2          0.6560    2.7260    4.8970 c         1 MOL      0.774415
      3 O1          1.6320    2.3150    4.3790 o         1 MOL     -0.581314
      4 H1          0.3530    2.4660    7.0150 hc        1 MOL      0.070780
      5 H2          1.7640    3.4660    6.5930 hc        1 MOL      0.070780
      6 H3          0.1210    4.1340    6.4400 hc        1 MOL      0.070780
      7 N1         -0.5370    2.8170    4.3230 n         1 MOL     -0.643842
      8 C3         -0.8670    2.4900    2.9480 c3        1 MOL     -0.013634
      9 C4         -0.8480    3.7640    2.1080 c         1 MOL      0.639368
     10 O2         -1.5310    4.7270    2.4220 o         1 MOL     -0.538956
     11 C5         -2.1600    1.6990    2.9370 c3        1 MOL     -0.093101
     12 C6         -2.6140    1.1740    1.5960 c         1 MOL      0.750832
     13 O3         -2.3200    1.8520    0.5720 o         1 MOL     -0.712522
     14 O4         -3.1420    0.0870    1.4860 o         1 MOL     -0.712522
     15 H4         -1.3090    3.0540    4.9250 hn        1 MOL      0.338527
     16 H5         -0.1270    1.8210    2.5070 h1        1 MOL      0.055990
     17 H6         -2.9280    2.4120    3.2430 hc        1 MOL      0.025565
     18 H7         -2.1520    0.8280    3.6020 hc        1 MOL      0.025565
     19 N2         -0.0050    3.6990    1.1140 n         1 MOL     -0.198758
     20 C7          0.2110    4.7880    0.1860 c3        1 MOL     -0.467197
     21 C8         -1.0480    5.2900   -0.4990 c         1 MOL      0.581924
     22 O5         -1.2970    6.4720   -0.7470 o         1 MOL     -0.578071
     23 C9          1.3350    4.3530   -0.7480 c3        1 MOL      0.175408
     24 C10         1.9220    5.5820   -1.4790 c3        1 MOL     -0.067441
     25 C11         3.0030    5.2530   -2.4660 c3        1 MOL     -0.004200
     26 C12         3.8180    6.5650   -2.8930 c3        1 MOL     -0.042961
     27 N3          5.0530    6.2700   -3.7090 n4        1 MOL     -0.221347
     28 H8          0.4880    2.8500    0.8990 hn        1 MOL      0.183561
     29 H9          0.6300    5.6420    0.7360 h1        1 MOL      0.159127
     30 H10         0.8900    3.7140   -1.5190 hc        1 MOL      0.057767
     31 H11         2.1270    3.8760   -0.1680 hc        1 MOL      0.057767
     32 H12         2.3250    6.2350   -0.7000 hc        1 MOL      0.036443
     33 H13         1.1110    6.1210   -1.9670 hc        1 MOL      0.036443
     34 H14         2.5600    4.7640   -3.3360 hc        1 MOL      0.028174
     35 H15         3.6100    4.6410   -1.7960 hc        1 MOL      0.028174
     36 H16         4.0530    7.0500   -1.9460 hx        1 MOL      0.099636
     37 H17         3.1100    7.1760   -3.4490 hx        1 MOL      0.099636
     38 H18         5.6100    7.1000   -3.8650 hn        1 MOL      0.294567
     39 H19         5.6380    5.4850   -3.4360 hn        1 MOL      0.294567
     40 H20         4.7860    6.0160   -4.6480 hn        1 MOL      0.294567
     41 N4         -1.9190    4.3750   -0.8780 n         1 MOL     -0.264321
     42 C13        -3.0570    4.6560   -1.7860 c3        1 MOL      0.055370
     43 C14        -4.4130    4.4300   -1.0750 c         1 MOL      0.430681
     44 O6         -5.4120    4.9680   -1.5010 o         1 MOL     -0.520703
     45 C15        -2.9370    3.8150   -2.9960 c3        1 MOL     -0.225023
     46 C16        -2.5810    2.3430   -2.6820 c         1 MOL      0.741194
     47 O7         -3.4630    1.6310   -2.1460 o         1 MOL     -0.759062
     48 O8         -1.3940    1.9330   -2.9160 o         1 MOL     -0.759062
     49 H21        -1.7410    3.4330   -0.5600 hn        1 MOL      0.234022
     50 H22        -3.0530    5.6830   -2.1440 h1        1 MOL      0.102122
     51 H23        -2.2640    4.3070   -3.6970 hc        1 MOL      0.061667
     52 H24        -3.8910    3.8300   -3.5240 hc        1 MOL      0.061667
     53 N5         -4.3210    3.5770   -0.0110 n         1 MOL     -0.116224
     54 C17        -5.3640    3.3880    0.9570 c3        1 MOL     -0.043297
     55 C18        -6.4050    2.3740    0.5470 c         1 MOL      0.428532
     56 O9         -7.5680    2.5530    0.8860 o         1 MOL     -0.545135
     57 H25        -3.4700    3.0470    0.1210 hn        1 MOL      0.007087
     58 H26        -5.7250    4.3870    1.2030 h1        1 MOL      0.070518
     59 H27        -5.0110    3.0410    1.9310 h1        1 MOL      0.070518
     60 N6         -5.9370    1.3430   -0.2030 n         1 MOL     -0.078466
     61 C19        -6.7280    0.2520   -0.7740 c3        1 MOL     -0.204999
     62 C20        -6.8850   -1.0000    0.1040 c         1 MOL      0.474500
     63 O10        -7.6020   -1.9480   -0.2660 o         1 MOL     -0.519012
     64 C21        -6.0610   -0.1460   -2.1060 c3        1 MOL     -0.146683
     65 C22        -5.0400   -1.3070   -1.9100 c         1 MOL      0.490347
     66 N7         -5.0710   -2.3030   -2.7240 n         1 MOL     -0.505217
     67 O11        -4.0990   -1.3060   -1.1330 o         1 MOL     -0.574334
     68 H28        -4.9550    1.4170   -0.4240 hn        1 MOL      0.123539
     69 H29        -7.6780    0.7220   -1.0270 h1        1 MOL      0.167215
     70 H30        -5.5120    0.6210   -2.6470 hc        1 MOL      0.100130
     71 H31        -6.8160   -0.4240   -2.8310 hc        1 MOL      0.100130
     72 H32        -5.6110   -2.1980   -3.5710 hn        1 MOL      0.264556
     73 H33        -4.3440   -2.9970   -2.7260 hn        1 MOL      0.264556
     74 N8         -6.1340   -1.1470    1.2550 n         1 MOL     -0.293713
     75 C23        -6.3770   -2.2830    2.1500 c3        1 MOL     -0.047751
     76 C24        -5.2540   -3.2780    2.3460 c         1 MOL      0.454583
     77 O12        -5.4280   -4.1400    3.2020 o         1 MOL     -0.556781
     78 H34        -5.4020   -0.5120    1.5530 hn        1 MOL      0.220837
     79 H35        -7.1840   -2.9370    1.8360 h1        1 MOL      0.091929
     80 H36        -6.6820   -1.8830    3.1200 h1        1 MOL      0.091929
     81 N9         -4.1030   -3.2060    1.6220 n         1 MOL     -0.272096
     82 C25        -2.9020   -3.9880    1.7580 c3        1 MOL      0.113965
     83 C26        -1.7180   -3.1050    1.3010 c         1 MOL      0.208913
     84 O13        -1.8030   -2.2270    0.4410 o         1 MOL     -0.494837
     85 C27        -2.9080   -5.2520    0.9100 c3        1 MOL     -0.190334
     86 C28        -3.0990   -5.1220   -0.6210 ca        1 MOL      0.279569
     87 C29        -4.3270   -5.4090   -1.1810 ca        1 MOL     -0.345596
     88 C30        -1.9960   -4.9440   -1.4310 ca        1 MOL     -0.345596
     89 C31        -4.4270   -5.3130   -2.5860 ca        1 MOL     -0.038574
     90 C32        -2.1500   -4.6990   -2.7960 ca        1 MOL     -0.038574
     91 C33        -3.3670   -5.0350   -3.4280 ca        1 MOL      0.117929
     92 O14        -3.6360   -4.9290   -4.7220 oh        1 MOL     -0.439459
     93 H37        -4.0820   -2.3790    1.0500 hn        1 MOL      0.298648
     94 H38        -2.7930   -4.2870    2.7980 h1        1 MOL      0.077374
     95 H39        -3.7010   -5.8950    1.2880 hc        1 MOL      0.065597
     96 H40        -1.9360   -5.6900    1.1290 hc        1 MOL      0.065597
     97 H41        -5.1870   -5.7020   -0.5990 ha        1 MOL      0.201287
     98 H42        -1.0470   -4.7100   -0.9790 ha        1 MOL      0.201287
     99 H43        -5.3560   -5.6090   -3.0440 ha        1 MOL      0.092010
    100 H44        -1.2580   -4.6450   -3.3980 ha        1 MOL      0.092010
    101 H45        -2.9450   -4.4100   -5.1620 ho        1 MOL      0.349751
    102 N10        -0.5560   -3.3660    1.8900 n         1 MOL     -0.245795
    103 C34         0.6810   -2.7100    1.5370 c3        1 MOL      0.011479
    104 C35         1.7340   -3.7030    0.9580 c         1 MOL      0.511595
    105 O15         1.5390   -4.8780    1.0640 o         1 MOL     -0.548440
    106 C36         1.1560   -1.7690    2.6700 c3        1 MOL      0.099159
    107 C37         1.8100   -2.4370    3.9250 c3        1 MOL     -0.140801
    108 C38         0.1080   -0.8320    3.2180 c3        1 MOL     -0.350949
    109 C39         3.2760   -2.7180    3.6120 c3        1 MOL     -0.006555
    110 H46        -0.4900   -4.0690    2.6130 hn        1 MOL      0.271722
    111 H47         0.4600   -1.9450    0.7950 h1        1 MOL     -0.006844
    112 H48         1.8890   -1.0930    2.2310 hc        1 MOL      0.084457
    113 H49         1.2300   -3.2760    4.3050 hc        1 MOL      0.046483
    114 H50         1.6660   -1.6990    4.7100 hc        1 MOL      0.046483
    115 H51         0.6250    0.0560    3.5800 hc        1 MOL      0.110732
    116 H52        -0.4280   -0.5190    2.3280 hc        1 MOL      0.110732
    117 H53        -0.5580   -1.3510    3.9090 hc        1 MOL      0.110732
    118 H54         3.4610   -3.7180    3.2210 hc        1 MOL     -0.011736
    119 H55         3.6320   -2.1000    2.7860 hc        1 MOL     -0.011736
    120 H56         3.9850   -2.5460    4.4330 hc        1 MOL     -0.011736
    121 N11         2.6330   -3.1480    0.1890 n         1 MOL     -0.185674
    122 C40         3.7800   -3.8420   -0.4520 c3        1 MOL     -0.073653
    123 C41         5.1070   -3.2180    0.0390 c         1 MOL      0.471143
    124 O16         5.1400   -2.1810    0.6970 o         1 MOL     -0.377721
    125 C42         3.7460   -3.7590   -1.9730 c3        1 MOL      0.060050
    126 O17         3.6120   -2.4520   -2.2820 oh        1 MOL     -0.499092
    127 H57         2.6910   -2.1450    0.1440 hn        1 MOL      0.130268
    128 H58         3.7210   -4.8560   -0.0490 h1        1 MOL      0.091300
    129 H59         2.9510   -4.3480   -2.4180 h1        1 MOL      0.039390
    130 H60         4.6670   -4.0840   -2.4430 h1        1 MOL      0.039390
    131 H61         2.8620   -2.3270   -2.8620 ho        1 MOL      0.404134
    132 N12         6.2090   -3.8500   -0.3070 n         1 MOL     -0.387783
    133 C43         7.5110   -3.3540    0.0750 c3        1 MOL      0.013854
    134 C44         7.7990   -2.0200   -0.5220 c         1 MOL      0.572690
    135 O18         8.6100   -1.2560    0.0100 o         1 MOL     -0.516167
    136 C45         8.5620   -4.3970   -0.4120 c3        1 MOL     -0.273622
    137 H62         6.1330   -4.7560   -0.7520 hn        1 MOL      0.278494
    138 H63         7.6590   -3.2170    1.1470 h1        1 MOL      0.105206
    139 H64         8.3970   -5.3840    0.0190 hc        1 MOL      0.096972
    140 H65         8.5990   -4.5330   -1.4950 hc        1 MOL      0.096972
    141 H66         9.5670   -4.0770   -0.1390 hc        1 MOL      0.096972
    142 N13         7.2040   -1.5340   -1.6680 n         1 MOL     -0.524225
    143 C46         7.5540   -0.2250   -2.1500 c3        1 MOL      0.205338
    144 C47         6.8440    0.9120   -1.3620 c         1 MOL      0.210187
    145 O19         7.3830    2.0370   -1.1930 o         1 MOL     -0.495632
    146 C48         7.2070   -0.1330   -3.6500 c3        1 MOL     -0.301672
    147 H67         6.4130   -1.9150   -2.1560 hn        1 MOL      0.294369
    148 H68         8.6140    0.0290   -2.0930 h1        1 MOL      0.103419
    149 H69         7.2650    0.8730   -4.0650 hc        1 MOL      0.081842
    150 H70         8.0240   -0.6050   -4.1840 hc        1 MOL      0.081842
    151 H71         6.3090   -0.6590   -3.9800 hc        1 MOL      0.081842
    152 N14         5.6520    0.6870   -0.8380 n         1 MOL     -0.117136
    153 C49         4.9340    1.4380    0.1950 c3        1 MOL     -0.160759
    154 C50         5.6100    1.4040    1.4840 c         1 MOL      0.525206
    155 O20         5.6510    2.4420    2.1650 o         1 MOL     -0.562953
    156 C51         3.5270    0.8390    0.3120 c3        1 MOL      0.039441
    157 C52         2.7410    0.8840   -1.0130 c3        1 MOL      0.298250
    158 C53         1.2880    0.4140   -0.8010 c         1 MOL      0.700181
    159 O21         0.6090    0.7630    0.1550 o         1 MOL     -0.779815
    160 O22         0.7410   -0.3340   -1.6440 o         1 MOL     -0.779815
    161 H72         5.2770   -0.2060   -1.1310 hn        1 MOL      0.187951
    162 H73         4.8280    2.4770   -0.1150 h1        1 MOL      0.095543
    163 H74         2.9860    1.4780    1.0000 hc        1 MOL      0.002310
    164 H75         3.6370   -0.1550    0.7630 hc        1 MOL      0.002310
    165 H76         3.2300    0.3360   -1.8100 hc        1 MOL     -0.146071
    166 H77         2.7170    1.8920   -1.4130 hc        1 MOL     -0.146071
    167 N15         6.2400    0.3210    1.9610 n         1 MOL     -0.050130
    168 C54         6.9650    0.3210    3.1830 c3        1 MOL     -0.380082
    169 H78         6.3810   -0.1850    3.9520 h1        1 MOL      0.134651
    170 H79         7.9120   -0.2000    3.0450 h1        1 MOL      0.134651
    171 H80         7.1570    1.3490    3.4920 h1        1 MOL      0.134651
    172 H81         6.1100   -0.5440    1.4570 hn        1 MOL      0.122546
    173 Ca1        -1.7410   -0.0800   -0.9680 Ca        1 MOL      1.777220
    174 O23        -1.8710   -1.6310   -3.1720 oh        1 MOL     -0.849831
    175 H82        -2.5690   -1.2980   -3.7360 ho        1 MOL      0.406502
    176 H83        -1.3770   -2.2260   -3.7260 ho        1 MOL      0.406502
@<TRIPOS>BOND
     1    1    2 1   
     2    1    4 1   
     3    1    5 1   
     4    1    6 1   
     5    2    3 2   
     6    2    7 1   
     7    7    8 1   
     8    7   15 1   
     9    8    9 1   
    10    8   11 1   
    11    8   16 1   
    12    9   10 2   
    13    9   19 1   
    14   11   12 1   
    15   11   17 1   
    16   11   18 1   
    17   12   13 1   
    18   12   14 1   
    19   19   20 1   
    20   19   28 1   
    21   20   21 1   
    22   20   23 1   
    23   20   29 1   
    24   21   22 2   
    25   21   41 1   
    26   23   24 1   
    27   23   30 1   
    28   23   31 1   
    29   24   25 1   
    30   24   32 1   
    31   24   33 1   
    32   25   26 1   
    33   25   34 1   
    34   25   35 1   
    35   26   27 1   
    36   26   36 1   
    37   26   37 1   
    38   27   38 1   
    39   27   39 1   
    40   27   40 1   
    41   41   42 1   
    42   41   49 1   
    43   42   43 1   
    44   42   45 1   
    45   42   50 1   
    46   43   44 2   
    47   43   53 1   
    48   45   46 1   
    49   45   51 1   
    50   45   52 1   
    51   46   47 1   
    52   46   48 1   
    53   53   54 1   
    54   53   57 1   
    55   54   55 1   
    56   54   58 1   
    57   54   59 1   
    58   55   56 2   
    59   55   60 1   
    60   60   61 1   
    61   60   68 1   
    62   61   62 1   
    63   61   64 1   
    64   61   69 1   
    65   62   63 2   
    66   62   74 1   
    67   64   65 1   
    68   64   70 1   
    69   64   71 1   
    70   65   66 1   
    71   65   67 2   
    72   66   72 1   
    73   66   73 1   
    74   74   75 1   
    75   74   78 1   
    76   75   76 1   
    77   75   79 1   
    78   75   80 1   
    79   76   77 2   
    80   76   81 1   
    81   81   82 1   
    82   81   93 1   
    83   82   83 1   
    84   82   85 1   
    85   82   94 1   
    86   83   84 2   
    87   83  102 1   
    88   85   86 1   
    89   85   95 1   
    90   85   96 1   
    91   86   87 ar  
    92   86   88 ar  
    93   87   89 ar  
    94   87   97 1   
    95   88   90 ar  
    96   88   98 1   
    97   89   91 ar  
    98   89   99 1   
    99   90   91 ar  
   100   90  100 1   
   101   91   92 1   
   102   92  101 1   
   103  102  103 1   
   104  102  110 1   
   105  103  104 1   
   106  103  106 1   
   107  103  111 1   
   108  104  105 2   
   109  104  121 1   
   110  106  107 1   
   111  106  108 1   
   112  106  112 1   
   113  107  109 1   
   114  107  113 1   
   115  107  114 1   
   116  108  115 1   
   117  108  116 1   
   118  108  117 1   
   119  109  118 1   
   120  109  119 1   
   121  109  120 1   
   122  121  122 1   
   123  121  127 1   
   124  122  123 1   
   125  122  125 1   
   126  122  128 1   
   127  123  124 2   
   128  123  132 1   
   129  125  126 1   
   130  125  129 1   
   131  125  130 1   
   132  126  131 1   
   133  132  133 1   
   134  132  137 1   
   135  133  134 1   
   136  133  136 1   
   137  133  138 1   
   138  134  135 2   
   139  134  142 1   
   140  136  139 1   
   141  136  140 1   
   142  136  141 1   
   143  142  143 1   
   144  142  147 1   
   145  143  144 1   
   146  143  146 1   
   147  143  148 1   
   148  144  145 2   
   149  144  152 1   
   150  146  149 1   
   151  146  150 1   
   152  146  151 1   
   153  152  153 1   
   154  152  161 1   
   155  153  154 1   
   156  153  156 1   
   157  153  162 1   
   158  154  155 2   
   159  154  167 1   
   160  156  157 1   
   161  156  163 1   
   162  156  164 1   
   163  157  158 1   
   164  157  165 1   
   165  157  166 1   
   166  158  159 1   
   167  158  160 1   
   168  167  168 1   
   169  167  172 1   
   170  168  169 1   
   171  168  170 1   
   172  168  171 1   
   173  174  175 1   
   174  174  176 1   
@<TRIPOS>SUBSTRUCTURE
     1 MOL         1 TEMP              0 ****  ****    0 ROOT
