@<TRIPOS>MOLECULE
MOL
  179   176     1     0     0
SMALL
resp


@<TRIPOS>ATOM
      1 C1          1.3240    3.1240    6.2190 c3        1 MOL     -0.286017
      2 C2          0.9750    2.9690    4.7150 c         1 MOL      0.717932
      3 O1          1.8980    2.9800    3.8810 o         1 MOL     -0.607618
      4 H1          0.6270    3.8220    6.6830 hc        1 MOL      0.073730
      5 H2          1.2480    2.1550    6.7120 hc        1 MOL      0.073730
      6 H3          2.3400    3.5050    6.3200 hc        1 MOL      0.073730
      7 N1         -0.3130    2.8460    4.4070 n         1 MOL     -0.553575
      8 C3         -0.8600    2.6870    3.0640 c3        1 MOL     -0.084021
      9 C4         -0.8470    4.0010    2.2850 c         1 MOL      0.723945
     10 O2         -1.3730    5.0490    2.7100 o         1 MOL     -0.578814
     11 C5         -2.2920    2.1010    3.2690 c3        1 MOL     -0.155311
     12 C6         -2.8070    1.3250    2.0220 c         1 MOL      0.730429
     13 O3         -2.1140    1.4140    0.9200 o         1 MOL     -0.730743
     14 O4         -3.8790    0.6730    2.1320 o         1 MOL     -0.730743
     15 H4         -1.0020    2.7630    5.1520 hn        1 MOL      0.310411
     16 H5         -0.1180    2.0390    2.5930 h1        1 MOL      0.054153
     17 H6         -2.9820    2.8900    3.5770 hc        1 MOL      0.079880
     18 H7         -2.4730    1.2720    3.9530 hc        1 MOL      0.079880
     19 N2         -0.0160    4.1360    1.2540 n         1 MOL     -0.323303
     20 C7          0.2070    5.4140    0.5240 c3        1 MOL     -0.207374
     21 C8         -1.0510    5.7770   -0.2690 c         1 MOL      0.575115
     22 O5         -1.3810    6.9340   -0.3880 o         1 MOL     -0.553746
     23 C9          1.4250    5.3330   -0.3850 c3        1 MOL      0.020806
     24 C10         1.6920    6.6840   -1.0440 c3        1 MOL      0.028900
     25 C11         3.0340    6.5270   -1.8470 c3        1 MOL     -0.171923
     26 C12         2.9400    5.4690   -3.0610 c3        1 MOL      0.146467
     27 N3          4.1500    5.4560   -3.9010 n4        1 MOL     -0.504776
     28 H8          0.3800    3.2780    0.9000 hn        1 MOL      0.211538
     29 H9          0.3880    6.2430    1.1970 h1        1 MOL      0.150208
     30 H10         1.2880    4.6200   -1.1950 hc        1 MOL      0.063037
     31 H11         2.3210    5.0230    0.1590 hc        1 MOL      0.063037
     32 H12         1.6950    7.4930   -0.3170 hc        1 MOL      0.039733
     33 H13         0.9910    6.8380   -1.8540 hc        1 MOL      0.039733
     34 H14         3.7870    6.1460   -1.1580 hc        1 MOL      0.058396
     35 H15         3.3350    7.5040   -2.2120 hc        1 MOL      0.058396
     36 H16         2.0070    5.6740   -3.5720 hx        1 MOL      0.047184
     37 H17         2.6480    4.5070   -2.6490 hx        1 MOL      0.047184
     38 H18         4.0190    4.7290   -4.5910 hn        1 MOL      0.369179
     39 H19         4.4600    6.3570   -4.2370 hn        1 MOL      0.369179
     40 H20         4.9720    5.1960   -3.3670 hn        1 MOL      0.369179
     41 N4         -1.7070    4.7840   -0.9450 n         1 MOL     -0.362912
     42 C13        -2.9150    5.0100   -1.7000 c3        1 MOL      0.149569
     43 C14        -4.1520    4.7530   -0.8550 c         1 MOL      0.432537
     44 O6         -5.2600    5.1810   -1.1910 o         1 MOL     -0.525593
     45 C15        -2.9400    4.3780   -3.1250 c3        1 MOL     -0.274460
     46 C16        -2.9760    2.8680   -3.1520 c         1 MOL      0.785615
     47 O7         -2.5260    2.2220   -2.1860 o         1 MOL     -0.704578
     48 O8         -3.4780    2.3630   -4.1790 o         1 MOL     -0.704578
     49 H21        -1.3590    3.8390   -0.8350 hn        1 MOL      0.182259
     50 H22        -2.9480    6.0470   -2.0170 h1        1 MOL      0.060232
     51 H23        -2.0300    4.6620   -3.6540 hc        1 MOL      0.068310
     52 H24        -3.8670    4.7540   -3.5550 hc        1 MOL      0.068310
     53 N5         -4.0380    3.9030    0.2480 n         1 MOL     -0.067353
     54 C17        -5.1650    3.5440    1.0910 c3        1 MOL     -0.175587
     55 C18        -5.9630    2.2840    0.5720 c         1 MOL      0.525891
     56 O9         -7.0970    2.0420    0.9740 o         1 MOL     -0.579042
     57 H25        -3.1820    3.3860    0.4010 hn        1 MOL     -0.078263
     58 H26        -5.7910    4.4370    1.1180 h1        1 MOL      0.106086
     59 H27        -4.8370    3.4190    2.1260 h1        1 MOL      0.106086
     60 N6         -5.4010    1.5120   -0.3720 n         1 MOL     -0.121043
     61 C19        -6.2140    0.4110   -1.0390 c3        1 MOL     -0.197396
     62 C20        -6.4020   -0.8780   -0.0980 c         1 MOL      0.361613
     63 O10        -6.9160   -1.8980   -0.5570 o         1 MOL     -0.438096
     64 C21        -5.6120    0.0950   -2.4180 c3        1 MOL     -0.163612
     65 C22        -4.5050   -0.9140   -2.3350 c         1 MOL      0.474435
     66 N7         -4.4880   -1.9470   -3.2100 n         1 MOL     -0.727033
     67 O11        -3.6240   -0.8070   -1.4830 o         1 MOL     -0.553165
     68 H28        -4.4820    1.7960   -0.6800 hn        1 MOL      0.119628
     69 H29        -7.1800    0.8690   -1.2100 h1        1 MOL      0.169222
     70 H30        -5.2960    1.0550   -2.8360 hc        1 MOL      0.119805
     71 H31        -6.3720   -0.2340   -3.1140 hc        1 MOL      0.119805
     72 H32        -5.2400   -2.1300   -3.8460 hn        1 MOL      0.368254
     73 H33        -3.7520   -2.6350   -3.1910 hn        1 MOL      0.368254
     74 N8         -6.0070   -0.8040    1.1780 n         1 MOL     -0.197927
     75 C23        -6.0670   -1.9820    2.1080 c3        1 MOL     -0.382445
     76 C24        -4.9590   -3.0010    1.8960 c         1 MOL      0.498274
     77 O12        -5.1040   -4.1120    2.4470 o         1 MOL     -0.536886
     78 H34        -5.3900   -0.0490    1.4570 hn        1 MOL      0.338998
     79 H35        -7.0040   -2.4980    1.9150 h1        1 MOL      0.177162
     80 H36        -6.0350   -1.5910    3.1240 h1        1 MOL      0.177162
     81 N9         -3.9470   -2.7670    1.0520 n         1 MOL     -0.062549
     82 C25        -2.7830   -3.6320    0.9420 c3        1 MOL      0.089400
     83 C26        -1.5290   -2.7890    0.9350 c         1 MOL      0.263738
     84 O13        -1.4890   -1.7890    0.2260 o         1 MOL     -0.485836
     85 C27        -2.7120   -4.4230   -0.3320 c3        1 MOL      0.156331
     86 C28        -3.9350   -5.3000   -0.5960 ca        1 MOL     -0.103618
     87 C29        -5.0530   -4.7660   -1.3470 ca        1 MOL     -0.157876
     88 C30        -3.9640   -6.5920   -0.0670 ca        1 MOL     -0.157876
     89 C31        -6.1830   -5.5750   -1.4650 ca        1 MOL     -0.277274
     90 C32        -5.0770   -7.3420   -0.3130 ca        1 MOL     -0.277274
     91 C33        -6.1980   -6.8800   -0.9480 ca        1 MOL      0.451243
     92 O14        -7.2300   -7.6700   -1.1230 oh        1 MOL     -0.504215
     93 H37        -3.8640   -1.9620    0.4620 hn        1 MOL      0.144321
     94 H38        -2.7950   -4.3860    1.7290 h1        1 MOL      0.013604
     95 H39        -1.9200   -5.1660   -0.2760 hc        1 MOL     -0.023615
     96 H40        -2.5980   -3.7980   -1.2210 hc        1 MOL     -0.023615
     97 H41        -5.1530   -3.7310   -1.6260 ha        1 MOL      0.149040
     98 H42        -3.1630   -6.9980    0.5300 ha        1 MOL      0.149040
     99 H43        -7.0900   -5.1340   -1.8470 ha        1 MOL      0.129012
    100 H44        -5.1530   -8.3480    0.0670 ha        1 MOL      0.129012
    101 H45        -7.1260   -8.5400   -0.7510 ho        1 MOL      0.359085
    102 N10        -0.4340   -3.3650    1.5300 n         1 MOL     -0.280560
    103 C34         0.8830   -2.8420    1.5000 c3        1 MOL      0.056431
    104 C35         1.7600   -3.6680    0.5880 c         1 MOL      0.370693
    105 O15         2.1090   -4.8120    0.8490 o         1 MOL     -0.517665
    106 C36         1.4580   -2.7130    2.8800 c3        1 MOL      0.110990
    107 C37         0.5610   -1.9360    3.7600 c3        1 MOL     -0.098571
    108 C38         2.8560   -2.1730    2.9710 c3        1 MOL      0.020885
    109 C39         0.3910   -0.4490    3.5080 c3        1 MOL      0.174471
    110 H46        -0.5380   -4.3330    1.7990 hn        1 MOL      0.271133
    111 H47         0.8540   -1.9010    0.9590 h1        1 MOL      0.054711
    112 H48         1.5810   -3.6890    3.3310 hc        1 MOL     -0.006773
    113 H49         0.9380   -1.9600    4.7770 hc        1 MOL     -0.006958
    114 H50        -0.3600   -2.5170    3.7580 hc        1 MOL     -0.006958
    115 H51         3.2550   -2.0030    3.9710 hc        1 MOL     -0.003621
    116 H52         3.5300   -2.8860    2.5000 hc        1 MOL     -0.003621
    117 H53         2.7940   -1.2070    2.4840 hc        1 MOL     -0.003621
    118 H54         0.1060   -0.2780    2.4760 hc        1 MOL     -0.030398
    119 H55        -0.3330    0.0050    4.1820 hc        1 MOL     -0.030398
    120 H56         1.3100    0.1230    3.6620 hc        1 MOL     -0.030398
    121 N11         2.3950   -3.0520   -0.4420 n         1 MOL     -0.252384
    122 C40         3.5310   -3.6550   -1.1640 c3        1 MOL      0.216661
    123 C41         4.9100   -3.6280   -0.5130 c         1 MOL      0.264589
    124 O16         5.1370   -2.9310    0.5050 o         1 MOL     -0.271449
    125 C42         3.5950   -2.9790   -2.4740 c3        1 MOL     -0.144608
    126 O17         4.2420   -1.6560   -2.4240 oh        1 MOL     -0.446978
    127 H57         2.2470   -2.0560   -0.5030 hn        1 MOL      0.128874
    128 H58         3.2110   -4.6800   -1.3650 h1        1 MOL      0.051881
    129 H59         2.5570   -2.9720   -2.8310 h1        1 MOL      0.075802
    130 H60         4.1530   -3.5930   -3.1810 h1        1 MOL      0.075802
    131 H61         3.7020   -1.0270   -2.9080 ho        1 MOL      0.357233
    132 N12         5.8880   -4.3370   -1.1230 n         1 MOL     -0.389353
    133 C43         7.2450   -4.1950   -0.5470 c3        1 MOL      0.161946
    134 C44         7.8150   -2.7500   -0.7320 c         1 MOL      0.361153
    135 O18         8.5580   -2.2410    0.1390 o         1 MOL     -0.468496
    136 C45         8.0590   -5.1420   -1.2970 c3        1 MOL     -0.165880
    137 H62         5.6610   -4.8030   -1.9950 hn        1 MOL      0.276000
    138 H63         7.2450   -4.3920    0.5300 h1        1 MOL      0.085180
    139 H64         8.0250   -4.7930   -2.3310 hc        1 MOL      0.050987
    140 H65         9.1260   -5.0170   -1.1260 hc        1 MOL      0.050987
    141 H66         7.7720   -6.1950   -1.2240 hc        1 MOL      0.050987
    142 N13         7.4680   -2.0420   -1.8530 n         1 MOL     -0.233035
    143 C46         7.8690   -0.6920   -2.1190 c3        1 MOL      0.031921
    144 C47         7.3110    0.2870   -1.0240 c         1 MOL      0.488189
    145 O19         8.0370    1.1550   -0.6400 o         1 MOL     -0.515869
    146 C48         7.3680   -0.3030   -3.5790 c3        1 MOL     -0.330333
    147 H67         6.9210   -2.5260   -2.5620 hn        1 MOL      0.231038
    148 H68         8.9580   -0.7160   -2.0060 h1        1 MOL      0.092457
    149 H69         7.7490    0.7100   -3.7050 hc        1 MOL      0.089481
    150 H70         7.7460   -1.0750   -4.2560 hc        1 MOL      0.089481
    151 H71         6.2850   -0.3450   -3.4540 hc        1 MOL      0.089481
    152 N14         6.0820    0.2050   -0.5050 n         1 MOL     -0.216928
    153 C49         5.4740    0.9080    0.6750 c3        1 MOL     -0.106391
    154 C50         6.2430    0.5010    1.9420 c         1 MOL      0.408499
    155 O20         6.7390    1.4310    2.6000 o         1 MOL     -0.528705
    156 C51         3.9680    0.8090    0.6880 c3        1 MOL     -0.020660
    157 C52         3.1550    1.5670   -0.3750 c3        1 MOL      0.051294
    158 C53         1.7160    1.1300   -0.3140 c         1 MOL      0.809166
    159 O21         0.7450    1.9290   -0.3120 o         1 MOL     -0.784519
    160 O22         1.4540   -0.0880   -0.6590 o         1 MOL     -0.784519
    161 H72         5.5740   -0.6460   -0.7200 hn        1 MOL      0.041292
    162 H73         5.7740    1.9460    0.4870 h1        1 MOL      0.104712
    163 H74         3.6190    1.1570    1.6670 hc        1 MOL      0.070119
    164 H75         3.6530   -0.2330    0.5820 hc        1 MOL      0.070119
    165 H76         3.5040    1.4050   -1.3940 hc        1 MOL     -0.057109
    166 H77         3.2080    2.6420   -0.2170 hc        1 MOL     -0.057109
    167 N15         6.4040   -0.7670    2.2310 n         1 MOL      0.021161
    168 C54         7.0220   -1.2740    3.4400 c3        1 MOL     -0.165471
    169 H78         7.8950   -1.8720    3.1790 h1        1 MOL      0.079158
    170 H79         7.3300   -0.4390    4.0690 h1        1 MOL      0.079158
    171 H80         6.3080   -1.8930    3.9820 h1        1 MOL      0.079158
    172 H81         5.8720   -1.4260    1.6780 hn        1 MOL      0.001730
    173 Ca1        -1.1350    0.3750   -1.2780 Ca        1 MOL      1.752292
    174 O23         0.0430    1.0940   -3.5470 oh        1 MOL     -0.819857
    175 H82         0.9850    1.2130   -3.6390 ho        1 MOL      0.404251
    176 H83        -0.2420    0.8020   -4.4170 ho        1 MOL      0.404251
    177 O24        -0.4380   -1.7530   -2.7290 oh        1 MOL     -0.819857
    178 H84         0.2850   -1.3660   -3.2100 ho        1 MOL      0.404251
    179 H85        -0.2940   -2.6970   -2.7940 ho        1 MOL      0.404251
@<TRIPOS>BOND
     1    1    2 1   
     2    1    4 1   
     3    1    5 1   
     4    1    6 1   
     5    2    3 2   
     6    2    7 1   
     7    7    8 1   
     8    7   15 1   
     9    8    9 1   
    10    8   11 1   
    11    8   16 1   
    12    9   10 2   
    13    9   19 1   
    14   11   12 1   
    15   11   17 1   
    16   11   18 1   
    17   12   13 1   
    18   12   14 1   
    19   19   20 1   
    20   19   28 1   
    21   20   21 1   
    22   20   23 1   
    23   20   29 1   
    24   21   22 2   
    25   21   41 1   
    26   23   24 1   
    27   23   30 1   
    28   23   31 1   
    29   24   25 1   
    30   24   32 1   
    31   24   33 1   
    32   25   26 1   
    33   25   34 1   
    34   25   35 1   
    35   26   27 1   
    36   26   36 1   
    37   26   37 1   
    38   27   38 1   
    39   27   39 1   
    40   27   40 1   
    41   41   42 1   
    42   41   49 1   
    43   42   43 1   
    44   42   45 1   
    45   42   50 1   
    46   43   44 2   
    47   43   53 1   
    48   45   46 1   
    49   45   51 1   
    50   45   52 1   
    51   46   47 1   
    52   46   48 1   
    53   53   54 1   
    54   53   57 1   
    55   54   55 1   
    56   54   58 1   
    57   54   59 1   
    58   55   56 2   
    59   55   60 1   
    60   60   61 1   
    61   60   68 1   
    62   61   62 1   
    63   61   64 1   
    64   61   69 1   
    65   62   63 2   
    66   62   74 1   
    67   64   65 1   
    68   64   70 1   
    69   64   71 1   
    70   65   66 1   
    71   65   67 2   
    72   66   72 1   
    73   66   73 1   
    74   74   75 1   
    75   74   78 1   
    76   75   76 1   
    77   75   79 1   
    78   75   80 1   
    79   76   77 2   
    80   76   81 1   
    81   81   82 1   
    82   81   93 1   
    83   82   83 1   
    84   82   85 1   
    85   82   94 1   
    86   83   84 2   
    87   83  102 1   
    88   85   86 1   
    89   85   95 1   
    90   85   96 1   
    91   86   87 ar  
    92   86   88 ar  
    93   87   89 ar  
    94   87   97 1   
    95   88   90 ar  
    96   88   98 1   
    97   89   91 ar  
    98   89   99 1   
    99   90   91 ar  
   100   90  100 1   
   101   91   92 1   
   102   92  101 1   
   103  102  103 1   
   104  102  110 1   
   105  103  104 1   
   106  103  106 1   
   107  103  111 1   
   108  104  105 2   
   109  104  121 1   
   110  106  107 1   
   111  106  108 1   
   112  106  112 1   
   113  107  109 1   
   114  107  113 1   
   115  107  114 1   
   116  108  115 1   
   117  108  116 1   
   118  108  117 1   
   119  109  118 1   
   120  109  119 1   
   121  109  120 1   
   122  121  122 1   
   123  121  127 1   
   124  122  123 1   
   125  122  125 1   
   126  122  128 1   
   127  123  124 2   
   128  123  132 1   
   129  125  126 1   
   130  125  129 1   
   131  125  130 1   
   132  126  131 1   
   133  132  133 1   
   134  132  137 1   
   135  133  134 1   
   136  133  136 1   
   137  133  138 1   
   138  134  135 2   
   139  134  142 1   
   140  136  139 1   
   141  136  140 1   
   142  136  141 1   
   143  142  143 1   
   144  142  147 1   
   145  143  144 1   
   146  143  146 1   
   147  143  148 1   
   148  144  145 2   
   149  144  152 1   
   150  146  149 1   
   151  146  150 1   
   152  146  151 1   
   153  152  153 1   
   154  152  161 1   
   155  153  154 1   
   156  153  156 1   
   157  153  162 1   
   158  154  155 2   
   159  154  167 1   
   160  156  157 1   
   161  156  163 1   
   162  156  164 1   
   163  157  158 1   
   164  157  165 1   
   165  157  166 1   
   166  158  159 1   
   167  158  160 1   
   168  167  168 1   
   169  167  172 1   
   170  168  169 1   
   171  168  170 1   
   172  168  171 1   
   173  174  175 1   
   174  174  176 1   
   175  177  178 1   
   176  177  179 1   
@<TRIPOS>SUBSTRUCTURE
     1 MOL         1 TEMP              0 ****  ****    0 ROOT
