@<TRIPOS>MOLECULE
MOL
  172   171     1     0     0
SMALL
resp


@<TRIPOS>ATOM
      1 C1          0.2630    4.0530    5.7360 c3        1 MOL     -0.393040
      2 C2         -0.2700    3.9750    4.2740 c         1 MOL      0.702766
      3 O1          0.4750    4.1590    3.3140 o         1 MOL     -0.555780
      4 H1          1.1730    3.4590    5.8230 hc        1 MOL      0.096455
      5 H2          0.4830    5.0910    5.9880 hc        1 MOL      0.096455
      6 H3         -0.4920    3.6640    6.4200 hc        1 MOL      0.096455
      7 N1         -1.5610    3.7460    4.0440 n         1 MOL     -0.586435
      8 C3         -2.1030    3.4180    2.7430 c3        1 MOL      0.113618
      9 C4         -2.2170    4.6480    1.8150 c         1 MOL      0.674527
     10 O2         -2.4050    5.7900    2.2340 o         1 MOL     -0.587155
     11 C5         -3.4550    2.7270    2.9700 c3        1 MOL     -0.473473
     12 C6         -4.0630    2.1400    1.7610 c         1 MOL      0.762226
     13 O3         -3.4270    1.8830    0.7280 o         1 MOL     -0.669134
     14 O4         -5.2720    1.7620    1.8600 o         1 MOL     -0.669134
     15 H4         -2.2170    3.7490    4.8120 hn        1 MOL      0.314076
     16 H5         -1.4370    2.7210    2.2310 h1        1 MOL      0.136016
     17 H6         -4.0870    3.5090    3.3760 hc        1 MOL      0.116814
     18 H7         -3.3420    2.0000    3.7800 hc        1 MOL      0.116814
     19 N2         -2.2840    4.4220    0.4750 n         1 MOL     -0.807718
     20 C7         -2.6950    5.4540   -0.5580 c3        1 MOL      0.543981
     21 C8         -3.6200    4.9830   -1.6810 c         1 MOL      0.399222
     22 O5         -3.8270    5.7860   -2.6030 o         1 MOL     -0.549207
     23 C9         -1.4410    6.0870   -1.1460 c3        1 MOL     -0.523714
     24 H8         -2.0200    3.4900    0.2230 hn        1 MOL      0.482773
     25 H9         -3.2700    6.2700   -0.1120 h1        1 MOL     -0.022853
     26 H10        -0.7560    6.3360   -0.3390 hc        1 MOL      0.129585
     27 H11        -1.1680    5.2880   -1.8460 hc        1 MOL      0.129585
     28 H12        -1.8370    6.9540   -1.6600 hc        1 MOL      0.129585
     29 N3         -4.1720    3.7540   -1.6300 n         1 MOL     -0.409437
     30 C10        -5.1180    3.2540   -2.6500 c3        1 MOL      0.157632
     31 C11        -6.3850    2.5290   -2.2060 c         1 MOL      0.353550
     32 O6         -7.3360    2.4140   -2.9590 o         1 MOL     -0.540646
     33 C12        -4.3560    2.3670   -3.6490 c3        1 MOL     -0.155697
     34 C13        -3.4720    1.3450   -3.0070 c         1 MOL      0.677694
     35 O7         -3.9300    0.6550   -2.0720 o         1 MOL     -0.667116
     36 O8         -2.2650    1.3100   -3.2620 o         1 MOL     -0.667116
     37 H13        -3.7420    3.1670   -0.9310 hn        1 MOL      0.238471
     38 H14        -5.3870    4.1380   -3.2220 h1        1 MOL      0.065629
     39 H15        -3.6970    2.9180   -4.3160 hc        1 MOL      0.028450
     40 H16        -5.0320    1.7500   -4.2300 hc        1 MOL      0.028450
     41 N4         -6.4680    2.0810   -0.9580 n         1 MOL     -0.188923
     42 C14        -7.4710    1.2210   -0.3880 c3        1 MOL     -0.122168
     43 C15        -7.5500   -0.2200   -0.9770 c         1 MOL      0.471719
     44 O9         -8.5190   -0.8960   -0.7780 o         1 MOL     -0.609305
     45 H17        -5.5970    2.1380   -0.4470 hn        1 MOL      0.101795
     46 H18        -8.4590    1.6920   -0.3860 h1        1 MOL      0.099542
     47 H19        -7.2170    1.1650    0.6780 h1        1 MOL      0.099542
     48 N5         -6.5060   -0.7510   -1.5920 n         1 MOL     -0.148656
     49 C16        -6.4040   -2.1760   -2.0830 c3        1 MOL     -0.132804
     50 C17        -6.1580   -3.2350   -0.9430 c         1 MOL      0.449737
     51 O10        -6.1060   -4.4270   -1.2560 o         1 MOL     -0.528616
     52 C18        -5.2270   -2.3020   -3.1320 c3        1 MOL     -0.011957
     53 C19        -3.7770   -2.1640   -2.6240 c         1 MOL      0.616262
     54 N6         -2.8550   -2.0820   -3.4960 n         1 MOL     -0.575693
     55 O11        -3.5590   -2.1060   -1.3910 o         1 MOL     -0.666770
     56 H20        -5.6740   -0.1920   -1.7300 hn        1 MOL      0.162250
     57 H21        -7.3190   -2.4540   -2.5950 h1        1 MOL      0.133851
     58 H22        -5.3920   -1.6290   -3.9730 hc        1 MOL      0.011047
     59 H23        -5.2110   -3.2590   -3.6550 hc        1 MOL      0.011047
     60 H24        -3.1570   -2.1250   -4.4600 hn        1 MOL      0.315492
     61 H25        -1.9050   -2.0080   -3.1690 hn        1 MOL      0.315492
     62 N7         -6.0370   -2.8810    0.3640 n         1 MOL     -0.122592
     63 C20        -6.1740   -3.8950    1.4330 c3        1 MOL     -0.402693
     64 C21        -4.8470   -4.5150    1.9090 c         1 MOL      0.555676
     65 O12        -4.8060   -5.4580    2.7360 o         1 MOL     -0.571063
     66 H26        -6.2670   -1.9240    0.5720 hn        1 MOL      0.259906
     67 H27        -6.7280   -4.7490    1.0440 h1        1 MOL      0.159743
     68 H28        -6.5990   -3.4200    2.3190 h1        1 MOL      0.159743
     69 N8         -3.7140   -4.0440    1.3430 n         1 MOL     -0.240531
     70 C22        -2.3640   -4.4690    1.5710 c3        1 MOL     -0.290571
     71 C23        -1.3920   -3.2990    1.5340 c         1 MOL      0.697489
     72 O13        -1.5460   -2.3400    0.7530 o         1 MOL     -0.567070
     73 C24        -1.9570   -5.3540    0.4340 c3        1 MOL      0.486409
     74 C25        -2.8570   -6.6120    0.4170 c3        1 MOL     -0.491153
     75 O14        -2.0030   -4.7650   -0.9030 oh        1 MOL     -0.609812
     76 H29        -3.7950   -3.2050    0.7810 hn        1 MOL      0.246577
     77 H30        -2.2870   -4.9340    2.5610 h1        1 MOL      0.121630
     78 H31        -0.9240   -5.5990    0.6720 h1        1 MOL     -0.033811
     79 H32        -1.9980   -3.8070   -0.8740 ho        1 MOL      0.376148
     80 H33        -3.8880   -6.3000    0.2230 hc        1 MOL      0.130342
     81 H34        -2.5880   -7.3850   -0.3050 hc        1 MOL      0.130342
     82 H35        -2.8690   -6.9700    1.4460 hc        1 MOL      0.130342
     83 N9         -0.3000   -3.4250    2.3130 n         1 MOL     -0.695683
     84 C26         0.9670   -2.6180    2.2100 c3        1 MOL     -0.050624
     85 C27         1.7580   -2.8810    0.9390 c         1 MOL      0.740548
     86 O15         2.3540   -3.9740    0.7040 o         1 MOL     -0.636020
     87 C28         1.8330   -2.7850    3.4820 c3        1 MOL      0.115852
     88 C29         0.9750   -2.3580    4.6850 c3        1 MOL      0.057458
     89 C30         3.2310   -2.1580    3.4560 c3        1 MOL     -0.141356
     90 C31         1.6390   -2.0290    5.9900 c3        1 MOL     -0.443339
     91 H36        -0.2750   -4.2880    2.8460 hn        1 MOL      0.353326
     92 H37         0.6090   -1.5950    2.0920 h1        1 MOL      0.089697
     93 H38         1.9710   -3.8660    3.5710 hc        1 MOL     -0.009467
     94 H39         0.2220   -3.1160    4.9320 hc        1 MOL      0.028377
     95 H40         0.4970   -1.4040    4.4720 hc        1 MOL      0.028377
     96 H41         3.8000   -2.5910    4.2790 hc        1 MOL      0.030228
     97 H42         3.7570   -2.4080    2.5330 hc        1 MOL      0.030228
     98 H43         3.1570   -1.0680    3.4660 hc        1 MOL      0.030228
     99 H44         0.8460   -1.6410    6.6160 hc        1 MOL      0.111163
    100 H45         2.1980   -2.9290    6.2420 hc        1 MOL      0.111163
    101 H46         2.4040   -1.2630    5.8580 hc        1 MOL      0.111163
    102 N10         1.7520   -1.9480    0.0030 n         1 MOL     -0.447632
    103 C32         2.6430   -2.0020   -1.1700 c3        1 MOL      0.239809
    104 C33         4.1180   -1.6560   -0.9130 c         1 MOL      0.439048
    105 O16         4.3790   -1.1000    0.1450 o         1 MOL     -0.351163
    106 C34         2.0640   -1.1030   -2.2660 c3        1 MOL     -0.326302
    107 C35         0.5580   -1.3410   -2.6050 c         1 MOL      0.687646
    108 O17        -0.3070   -0.9810   -1.7770 o         1 MOL     -0.648777
    109 O18         0.1520   -1.8990   -3.6450 o         1 MOL     -0.648777
    110 H47         1.1260   -1.1600    0.0730 hn        1 MOL      0.180060
    111 H48         2.6280   -3.0080   -1.5820 h1        1 MOL      0.047714
    112 H49         2.6470   -1.3020   -3.1660 hc        1 MOL      0.069986
    113 H50         2.1560   -0.0510   -1.9980 hc        1 MOL      0.069986
    114 N11         5.0210   -1.7860   -1.8800 n         1 MOL     -0.811602
    115 C36         6.4380   -1.4480   -1.6090 c3        1 MOL      0.641662
    116 C37         6.7200   -0.0370   -1.1860 c         1 MOL      0.218170
    117 O19         7.4160    0.1330   -0.1600 o         1 MOL     -0.481064
    118 C38         7.4760   -1.7970   -2.6930 c3        1 MOL     -0.337982
    119 C39         8.9120   -1.5670   -2.3480 ca        1 MOL      0.259454
    120 C40         9.4510   -1.9070   -1.0960 ca        1 MOL     -0.283680
    121 C41         9.7360   -0.9760   -3.3420 ca        1 MOL     -0.283680
    122 C42        10.8060   -1.6370   -0.8240 ca        1 MOL     -0.011215
    123 C43        11.0310   -0.5330   -2.9800 ca        1 MOL     -0.011215
    124 C44        11.5360   -0.9410   -1.7580 ca        1 MOL     -0.198655
    125 H51         4.7370   -2.1090   -2.7910 hn        1 MOL      0.384979
    126 H52         6.7400   -2.0110   -0.7190 h1        1 MOL      0.015412
    127 H53         7.2450   -1.2590   -3.6160 hc        1 MOL      0.058902
    128 H54         7.3490   -2.8500   -2.9460 hc        1 MOL      0.058902
    129 H55         8.8460   -2.5140   -0.4420 ha        1 MOL      0.137162
    130 H56         9.3000   -0.6380   -4.2760 ha        1 MOL      0.137162
    131 H57        11.1830   -1.9970    0.1260 ha        1 MOL      0.093363
    132 H58        11.6430    0.0280   -3.6790 ha        1 MOL      0.093363
    133 H59        12.5420   -0.6660   -1.4890 ha        1 MOL      0.103349
    134 N12         6.1990    1.0090   -1.7850 n         1 MOL     -0.145569
    135 C45         6.2940    2.4510   -1.3300 c3        1 MOL      0.170131
    136 C46         5.6280    2.6830    0.0390 c         1 MOL      0.186681
    137 O20         6.1530    3.5160    0.7890 o         1 MOL     -0.490383
    138 C47         5.6120    3.2910   -2.4290 c3        1 MOL     -0.029195
    139 C48         5.4710    2.3360   -3.6420 c3        1 MOL     -0.053296
    140 C49         5.3570    1.0020   -3.0500 c3        1 MOL     -0.119454
    141 H60         7.3510    2.7140   -1.2920 h1        1 MOL      0.054705
    142 H61         4.6120    3.5880   -2.1050 hc        1 MOL      0.028034
    143 H62         6.3190    4.0790   -2.6870 hc        1 MOL      0.028034
    144 H63         4.6060    2.5300   -4.2700 hc        1 MOL      0.036610
    145 H64         6.3670    2.2630   -4.2530 hc        1 MOL      0.036610
    146 H65         4.3020    0.8520   -2.8480 h1        1 MOL      0.085407
    147 H66         5.8030    0.2170   -3.6680 h1        1 MOL      0.085407
    148 N13         4.5990    1.9460    0.4210 n         1 MOL      0.031644
    149 C50         4.0500    1.9810    1.7420 c3        1 MOL     -0.379594
    150 C51         4.9500    1.2840    2.8230 c         1 MOL      0.587987
    151 O21         4.8880    1.6740    4.0060 o         1 MOL     -0.578817
    152 C52         2.6440    1.3650    1.7120 c3        1 MOL     -0.039695
    153 C53         1.7600    1.8800    0.5150 c3        1 MOL      0.011500
    154 C54         0.2140    1.5100    0.4840 c         1 MOL      0.500556
    155 O22        -0.2030    0.6440    1.3050 o         1 MOL     -0.704909
    156 O23        -0.5340    2.0380   -0.3540 o         1 MOL     -0.704909
    157 H67         4.3020    1.1670   -0.1370 hn        1 MOL      0.175601
    158 H68         4.0070    3.0190    2.0840 h1        1 MOL      0.171371
    159 H69         2.0600    1.5500    2.6140 hc        1 MOL      0.082715
    160 H70         2.8390    0.2990    1.6400 hc        1 MOL      0.082715
    161 H71         2.2750    1.7460   -0.4430 hc        1 MOL      0.037059
    162 H72         1.7880    2.9480    0.7380 hc        1 MOL      0.037059
    163 N14         5.7360    0.2700    2.4610 n         1 MOL     -0.102249
    164 C55         6.7650   -0.3210    3.3220 c3        1 MOL     -0.205177
    165 H73         6.8710   -1.3800    3.0870 h1        1 MOL      0.080853
    166 H74         7.7150    0.1850    3.1520 h1        1 MOL      0.080853
    167 H75         6.4750   -0.2090    4.3660 h1        1 MOL      0.080853
    168 H76         5.3820   -0.2170    1.6540 hn        1 MOL      0.078115
    169 Ca1        -2.1570   -0.0770   -0.3230 Ca        1 MOL      1.686993
    170 O24        -3.9690   -0.6880    1.6560 oh        1 MOL     -0.876889
    171 H77        -4.6060   -0.0260    1.8940 ho        1 MOL      0.397913
    172 H78        -3.3770   -0.7390    2.4150 ho        1 MOL      0.397913
@<TRIPOS>BOND
     1    1    2 1   
     2    1    4 1   
     3    1    5 1   
     4    1    6 1   
     5    2    3 2   
     6    2    7 1   
     7    7    8 1   
     8    7   15 1   
     9    8    9 1   
    10    8   11 1   
    11    8   16 1   
    12    9   10 2   
    13    9   19 1   
    14   11   12 1   
    15   11   17 1   
    16   11   18 1   
    17   12   13 1   
    18   12   14 1   
    19   19   20 1   
    20   19   24 1   
    21   20   21 1   
    22   20   23 1   
    23   20   25 1   
    24   21   22 2   
    25   21   29 1   
    26   23   26 1   
    27   23   27 1   
    28   23   28 1   
    29   29   30 1   
    30   29   37 1   
    31   30   31 1   
    32   30   33 1   
    33   30   38 1   
    34   31   32 2   
    35   31   41 1   
    36   33   34 1   
    37   33   39 1   
    38   33   40 1   
    39   34   35 1   
    40   34   36 1   
    41   41   42 1   
    42   41   45 1   
    43   42   43 1   
    44   42   46 1   
    45   42   47 1   
    46   43   44 2   
    47   43   48 1   
    48   48   49 1   
    49   48   56 1   
    50   49   50 1   
    51   49   52 1   
    52   49   57 1   
    53   50   51 2   
    54   50   62 1   
    55   52   53 1   
    56   52   58 1   
    57   52   59 1   
    58   53   54 1   
    59   53   55 2   
    60   54   60 1   
    61   54   61 1   
    62   62   63 1   
    63   62   66 1   
    64   63   64 1   
    65   63   67 1   
    66   63   68 1   
    67   64   65 2   
    68   64   69 1   
    69   69   70 1   
    70   69   76 1   
    71   70   71 1   
    72   70   73 1   
    73   70   77 1   
    74   71   72 2   
    75   71   83 1   
    76   73   74 1   
    77   73   75 1   
    78   73   78 1   
    79   74   80 1   
    80   74   81 1   
    81   74   82 1   
    82   75   79 1   
    83   83   84 1   
    84   83   91 1   
    85   84   85 1   
    86   84   87 1   
    87   84   92 1   
    88   85   86 2   
    89   85  102 1   
    90   87   88 1   
    91   87   89 1   
    92   87   93 1   
    93   88   90 1   
    94   88   94 1   
    95   88   95 1   
    96   89   96 1   
    97   89   97 1   
    98   89   98 1   
    99   90   99 1   
   100   90  100 1   
   101   90  101 1   
   102  102  103 1   
   103  102  110 1   
   104  103  104 1   
   105  103  106 1   
   106  103  111 1   
   107  104  105 2   
   108  104  114 1   
   109  106  107 1   
   110  106  112 1   
   111  106  113 1   
   112  107  108 1   
   113  107  109 1   
   114  114  115 1   
   115  114  125 1   
   116  115  116 1   
   117  115  118 1   
   118  115  126 1   
   119  116  117 2   
   120  116  134 1   
   121  118  119 1   
   122  118  127 1   
   123  118  128 1   
   124  119  120 ar  
   125  119  121 ar  
   126  120  122 ar  
   127  120  129 1   
   128  121  123 ar  
   129  121  130 1   
   130  122  124 ar  
   131  122  131 1   
   132  123  124 ar  
   133  123  132 1   
   134  124  133 1   
   135  134  135 1   
   136  134  140 1   
   137  135  136 1   
   138  135  138 1   
   139  135  141 1   
   140  136  137 2   
   141  136  148 1   
   142  138  139 1   
   143  138  142 1   
   144  138  143 1   
   145  139  140 1   
   146  139  144 1   
   147  139  145 1   
   148  140  146 1   
   149  140  147 1   
   150  148  149 1   
   151  148  157 1   
   152  149  150 1   
   153  149  152 1   
   154  149  158 1   
   155  150  151 2   
   156  150  163 1   
   157  152  153 1   
   158  152  159 1   
   159  152  160 1   
   160  153  154 1   
   161  153  161 1   
   162  153  162 1   
   163  154  155 1   
   164  154  156 1   
   165  163  164 1   
   166  163  168 1   
   167  164  165 1   
   168  164  166 1   
   169  164  167 1   
   170  170  171 1   
   171  170  172 1   
@<TRIPOS>SUBSTRUCTURE
     1 MOL         1 TEMP              0 ****  ****    0 ROOT
