@<TRIPOS>MOLECULE
MOL
  178   175     1     0     0
SMALL
resp


@<TRIPOS>ATOM
      1 C1         -0.0870    3.6570    5.3870 c3        1 MOL     -0.379726
      2 C2         -0.7330    3.2980    4.0060 c         1 MOL      0.701300
      3 O1         -0.3010    3.9790    3.0990 o         1 MOL     -0.575047
      4 H1          0.2050    4.7070    5.3890 hc        1 MOL      0.090024
      5 H2         -0.8090    3.4800    6.1840 hc        1 MOL      0.090024
      6 H3          0.7940    3.0350    5.5490 hc        1 MOL      0.090024
      7 N1         -1.6510    2.4080    3.8730 n         1 MOL     -0.620151
      8 C3         -2.4740    2.0510    2.6430 c3        1 MOL      0.552589
      9 C4         -3.1730    3.2410    2.0320 c         1 MOL      0.208129
     10 O2         -4.2830    3.5610    2.4200 o         1 MOL     -0.513667
     11 C5         -3.4660    0.9630    2.9370 c3        1 MOL     -0.155123
     12 C6         -4.2840    0.4330    1.7620 c         1 MOL      0.687018
     13 O3         -5.3830   -0.1270    2.1030 o         1 MOL     -0.668476
     14 O4         -3.8380    0.5880    0.5760 o         1 MOL     -0.668476
     15 H4         -1.8550    1.8300    4.6710 hn        1 MOL      0.286043
     16 H5         -1.8050    1.5360    1.9600 h1        1 MOL     -0.152061
     17 H6         -4.0920    1.3010    3.7700 hc        1 MOL      0.007617
     18 H7         -2.9140    0.1010    3.3020 hc        1 MOL      0.007617
     19 N2         -2.4830    3.9720    1.1130 n         1 MOL     -0.035599
     20 C7         -2.9150    5.3680    0.7450 c3        1 MOL      0.111242
     21 C8         -3.9450    5.2950   -0.3900 c         1 MOL      0.423371
     22 O5         -4.4970    6.2910   -0.7000 o         1 MOL     -0.573793
     23 C9         -1.6180    6.1860    0.3420 c3        1 MOL     -0.378309
     24 H8         -1.5430    3.6930    0.8660 hn        1 MOL      0.176639
     25 H9         -3.3570    5.8300    1.6220 h1        1 MOL      0.048514
     26 H10        -2.0150    7.1230   -0.0720 hc        1 MOL      0.106652
     27 H11        -0.9780    6.1910    1.2140 hc        1 MOL      0.106652
     28 H12        -1.1620    5.6650   -0.4950 hc        1 MOL      0.106652
     29 N3         -4.1480    4.1620   -0.9980 n         1 MOL     -0.086687
     30 C10        -5.3110    3.8200   -1.8460 c3        1 MOL     -0.032845
     31 C11        -6.4730    2.8660   -1.3530 c         1 MOL      0.389099
     32 O6         -7.4330    2.6570   -2.0850 o         1 MOL     -0.534422
     33 C12        -4.7880    3.3280   -3.2400 c3        1 MOL     -0.217119
     34 C13        -3.5720    2.4130   -3.2400 c         1 MOL      0.772849
     35 O7         -3.0760    2.1960   -4.4100 o         1 MOL     -0.718645
     36 O8         -3.2600    1.7580   -2.1830 o         1 MOL     -0.718645
     37 H13        -3.6180    3.3790   -0.6330 hn        1 MOL     -0.019621
     38 H14        -5.7800    4.7880   -2.0360 h1        1 MOL      0.107305
     39 H15        -4.6140    4.2110   -3.8450 hc        1 MOL      0.059464
     40 H16        -5.4790    2.7600   -3.8580 hc        1 MOL      0.059464
     41 N4         -6.4060    2.3670   -0.1210 n         1 MOL     -0.120323
     42 C14        -7.4560    1.6220    0.5100 c3        1 MOL     -0.265352
     43 C15        -7.5820    0.1530   -0.0160 c         1 MOL      0.604720
     44 O9         -8.5050   -0.5330    0.4320 o         1 MOL     -0.596700
     45 H17        -5.5240    2.4070    0.3700 hn        1 MOL      0.139297
     46 H18        -8.4440    2.0580    0.4240 h1        1 MOL      0.131475
     47 H19        -7.1950    1.5360    1.5610 h1        1 MOL      0.131475
     48 N5         -6.7560   -0.3520   -0.9330 n         1 MOL     -0.415160
     49 C16        -6.7930   -1.6620   -1.4930 c3        1 MOL      0.042824
     50 C17        -6.5750   -2.8210   -0.4940 c         1 MOL      0.404254
     51 O10        -6.9250   -3.9790   -0.7520 o         1 MOL     -0.575545
     52 C18        -5.9000   -1.7390   -2.7890 c3        1 MOL     -0.311987
     53 C19        -4.5770   -2.3160   -2.2950 c         1 MOL      0.435210
     54 N6         -4.2060   -3.4920   -2.7210 n         1 MOL     -0.582965
     55 O11        -3.8050   -1.8460   -1.4250 o         1 MOL     -0.670525
     56 H20        -5.9300    0.2100   -1.1110 hn        1 MOL      0.351574
     57 H21        -7.7920   -1.8610   -1.8890 h1        1 MOL      0.088291
     58 H22        -5.8850   -0.7910   -3.3280 hc        1 MOL      0.139244
     59 H23        -6.2020   -2.5290   -3.4750 hc        1 MOL      0.139244
     60 H24        -4.6920   -3.9710   -3.4640 hn        1 MOL      0.317439
     61 H25        -3.4330   -3.9040   -2.2120 hn        1 MOL      0.317439
     62 N7         -6.0510   -2.4200    0.6510 n         1 MOL      0.052045
     63 C20        -5.9530   -3.3210    1.8820 c3        1 MOL     -0.379132
     64 C21        -4.6480   -4.0100    2.0340 c         1 MOL      0.583232
     65 O12        -4.4490   -4.7540    3.0410 o         1 MOL     -0.599025
     66 H26        -5.7250   -1.4690    0.7360 hn        1 MOL      0.190409
     67 H27        -6.7440   -4.0680    1.8740 h1        1 MOL      0.156322
     68 H28        -5.9600   -2.6820    2.7670 h1        1 MOL      0.156322
     69 N8         -3.7120   -3.8970    1.1100 n         1 MOL     -0.090451
     70 C22        -2.3430   -4.4320    1.1950 c3        1 MOL     -0.299179
     71 C23        -1.3330   -3.2910    1.1400 c         1 MOL      0.829043
     72 O13        -1.4770   -2.2300    0.5160 o         1 MOL     -0.629600
     73 C24        -2.0670   -5.5210    0.0600 c3        1 MOL      0.421226
     74 C25        -2.8750   -6.7470    0.1710 c3        1 MOL     -0.420967
     75 O14        -2.3040   -4.9660   -1.1990 oh        1 MOL     -0.547497
     76 H29        -3.8300   -3.2810    0.3260 hn        1 MOL      0.096103
     77 H30        -2.2120   -4.9650    2.1280 h1        1 MOL      0.112964
     78 H31        -1.0010   -5.7670    0.1040 h1        1 MOL     -0.021110
     79 H32        -2.2320   -5.6880   -1.8250 ho        1 MOL      0.372471
     80 H33        -3.9220   -6.4650    0.2730 hc        1 MOL      0.108824
     81 H34        -2.6040   -7.3950   -0.6660 hc        1 MOL      0.108824
     82 H35        -2.6300   -7.3030    1.0760 hc        1 MOL      0.108824
     83 N9         -0.3200   -3.4650    1.9820 n         1 MOL     -0.702472
     84 C26         1.0600   -2.7370    1.9430 c3        1 MOL      0.008285
     85 C27         1.6000   -3.1060    0.4940 c         1 MOL      0.508455
     86 O15         1.9110   -4.2460    0.1530 o         1 MOL     -0.573694
     87 C28         2.0230   -3.1120    3.1640 c3        1 MOL      0.137507
     88 C29         1.4320   -2.5830    4.4210 c3        1 MOL      0.168745
     89 C30         3.4830   -2.5880    2.7890 c3        1 MOL     -0.192673
     90 C31         2.4240   -2.5210    5.5970 c3        1 MOL     -0.209647
     91 H36        -0.3460   -4.3500    2.4670 hn        1 MOL      0.328159
     92 H37         0.8860   -1.6710    2.0560 h1        1 MOL      0.194072
     93 H38         2.0760   -4.2000    3.2080 hc        1 MOL     -0.020565
     94 H39         0.6240   -3.2640    4.6700 hc        1 MOL     -0.027985
     95 H40         0.9900   -1.6090    4.2220 hc        1 MOL     -0.027985
     96 H41         3.8370   -2.7980    1.7850 hc        1 MOL      0.045661
     97 H42         3.4100   -1.5080    2.9460 hc        1 MOL      0.045661
     98 H43         4.2770   -3.0510    3.3710 hc        1 MOL      0.045661
     99 H44         2.8120   -3.5140    5.8250 hc        1 MOL      0.035269
    100 H45         3.1550   -1.7670    5.3140 hc        1 MOL      0.035269
    101 H46         1.7860   -2.2170    6.4350 hc        1 MOL      0.035269
    102 N10         1.9900   -2.0570   -0.3030 n         1 MOL     -0.227950
    103 C32         3.0610   -2.0950   -1.3780 c3        1 MOL      0.249896
    104 C33         4.3310   -1.4880   -0.7120 c         1 MOL      0.184064
    105 O16         4.3330   -0.7580    0.2410 o         1 MOL     -0.136613
    106 C34         2.5650   -1.2410   -2.5260 c3        1 MOL     -0.178545
    107 C35         3.4200   -1.2550   -3.7850 c         1 MOL      0.695921
    108 O17         3.1580   -0.3960   -4.6870 o         1 MOL     -0.714122
    109 O18         4.3630   -2.0550   -3.8920 o         1 MOL     -0.714122
    110 H47         1.7950   -1.1580    0.1120 hn        1 MOL     -0.153435
    111 H48         3.2180   -3.1210   -1.7130 h1        1 MOL      0.038893
    112 H49         2.5030   -0.2180   -2.1580 hc        1 MOL      0.037115
    113 H50         1.5640   -1.5590   -2.8410 hc        1 MOL      0.037115
    114 N11         5.4790   -1.6110   -1.4150 n         1 MOL     -0.454932
    115 C36         6.8100   -1.0350   -0.9820 c3        1 MOL      0.075178
    116 C37         6.8420    0.4350   -0.6880 c         1 MOL      0.518076
    117 O19         7.3930    0.8490    0.3330 o         1 MOL     -0.514599
    118 C38         7.9690   -1.4910   -1.9410 c3        1 MOL     -0.056283
    119 C39         9.3410   -1.1400   -1.5090 ca        1 MOL      0.070961
    120 C40         9.8180   -1.7570   -0.3000 ca        1 MOL     -0.227643
    121 C41        10.0330   -0.0160   -1.9700 ca        1 MOL     -0.227643
    122 C42        10.9520   -1.2530    0.3000 ca        1 MOL     -0.024063
    123 C43        11.2670    0.4210   -1.4340 ca        1 MOL     -0.024063
    124 C44        11.7310   -0.2810   -0.3000 ca        1 MOL     -0.172549
    125 H51         5.4870   -2.1450   -2.2750 hn        1 MOL      0.279075
    126 H52         6.9680   -1.5900   -0.0560 h1        1 MOL      0.088965
    127 H53         7.7790   -1.0910   -2.9390 hc        1 MOL      0.048883
    128 H54         7.8970   -2.5720   -2.0450 hc        1 MOL      0.048883
    129 H55         9.2600   -2.5110    0.2460 ha        1 MOL      0.129580
    130 H56         9.6060    0.6080   -2.7310 ha        1 MOL      0.129580
    131 H57        11.3720   -1.6830    1.1950 ha        1 MOL      0.086462
    132 H58        11.8910    1.2200   -1.8240 ha        1 MOL      0.086462
    133 H59        12.7110   -0.0690    0.0740 ha        1 MOL      0.099005
    134 N12         6.2820    1.3440   -1.4880 n         1 MOL     -0.180950
    135 C45         6.0950    2.7630   -1.1300 c3        1 MOL     -0.153674
    136 C46         5.3120    2.9350    0.2400 c         1 MOL      0.240822
    137 O20         5.4520    3.9990    0.8790 o         1 MOL     -0.509725
    138 C47         5.1890    3.3310   -2.2560 c3        1 MOL      0.114789
    139 C48         5.3200    2.4300   -3.4400 c3        1 MOL     -0.164898
    140 C49         5.4880    1.0710   -2.7430 c3        1 MOL     -0.054520
    141 H60         7.1010    3.1430   -1.2430 h1        1 MOL      0.123464
    142 H61         4.1440    3.3500   -1.9430 hc        1 MOL      0.008175
    143 H62         5.4110    4.3500   -2.5750 hc        1 MOL      0.008175
    144 H63         4.4470    2.3950   -4.0980 hc        1 MOL      0.065345
    145 H64         6.2240    2.6740   -3.9910 hc        1 MOL      0.065345
    146 H65         4.5090    0.6840   -2.4710 h1        1 MOL      0.098163
    147 H66         5.9670    0.4580   -3.5160 h1        1 MOL      0.098163
    148 N13         4.4980    1.9830    0.6670 n         1 MOL     -0.031519
    149 C50         3.7390    2.0400    1.8810 c3        1 MOL     -0.023203
    150 C51         4.5010    1.4500    3.0410 c         1 MOL      0.454964
    151 O21         4.3250    1.8050    4.1880 o         1 MOL     -0.572948
    152 C52         2.3530    1.5010    1.6540 c3        1 MOL      0.172152
    153 C53         1.7150    2.0740    0.3290 c3        1 MOL     -0.324676
    154 C54         0.3120    1.4950    0.1320 c         1 MOL      0.776526
    155 O22         0.1590    0.2440    0.3040 o         1 MOL     -0.675727
    156 O23        -0.6450    2.2470   -0.3300 o         1 MOL     -0.675727
    157 H67         4.3210    1.2100    0.0330 hn        1 MOL      0.263750
    158 H68         3.6440    3.1160    2.0630 h1        1 MOL      0.059739
    159 H69         1.7690    1.8310    2.5160 hc        1 MOL     -0.032844
    160 H70         2.4870    0.4170    1.7440 hc        1 MOL     -0.032844
    161 H71         2.3720    1.8210   -0.5010 hc        1 MOL      0.084727
    162 H72         1.6120    3.1550    0.4140 hc        1 MOL      0.084727
    163 N14         5.3600    0.4740    2.7210 n         1 MOL      0.027092
    164 C55         6.4320   -0.0220    3.5780 c3        1 MOL     -0.091605
    165 H73         6.8420    0.8030    4.1600 h1        1 MOL      0.037559
    166 H74         6.0370   -0.7800    4.2530 h1        1 MOL      0.037559
    167 H75         7.2190   -0.4580    2.9620 h1        1 MOL      0.037559
    168 H76         5.4490    0.1640    1.7600 hn        1 MOL     -0.084492
    169 Ca1        -1.9520   -0.0810   -1.0630 Ca        1 MOL      1.710131
    170 O24        -2.8340   -0.5600   -4.0140 oh        1 MOL     -0.720582
    171 H77        -2.7210   -1.2050   -4.7100 ho        1 MOL      0.356363
    172 H78        -2.9060    0.2820   -4.4840 ho        1 MOL      0.356363
    173 O25        -0.3110    0.8530   -2.9480 oh        1 MOL     -0.720582
    174 H79         0.3480    1.4300   -3.3330 ho        1 MOL      0.356363
    175 H80        -0.3680    0.1150   -3.5590 ho        1 MOL      0.356363
    176 O26        -1.1030   -2.3050   -2.3530 oh        1 MOL     -0.720582
    177 H81        -1.1660   -3.1660   -1.9430 ho        1 MOL      0.356363
    178 H82        -0.8090   -2.4790   -3.2410 ho        1 MOL      0.356363
@<TRIPOS>BOND
     1    1    2 1   
     2    1    4 1   
     3    1    5 1   
     4    1    6 1   
     5    2    3 2   
     6    2    7 1   
     7    7    8 1   
     8    7   15 1   
     9    8    9 1   
    10    8   11 1   
    11    8   16 1   
    12    9   10 2   
    13    9   19 1   
    14   11   12 1   
    15   11   17 1   
    16   11   18 1   
    17   12   13 1   
    18   12   14 1   
    19   19   20 1   
    20   19   24 1   
    21   20   21 1   
    22   20   23 1   
    23   20   25 1   
    24   21   22 2   
    25   21   29 1   
    26   23   26 1   
    27   23   27 1   
    28   23   28 1   
    29   29   30 1   
    30   29   37 1   
    31   30   31 1   
    32   30   33 1   
    33   30   38 1   
    34   31   32 2   
    35   31   41 1   
    36   33   34 1   
    37   33   39 1   
    38   33   40 1   
    39   34   35 1   
    40   34   36 1   
    41   41   42 1   
    42   41   45 1   
    43   42   43 1   
    44   42   46 1   
    45   42   47 1   
    46   43   44 2   
    47   43   48 1   
    48   48   49 1   
    49   48   56 1   
    50   49   50 1   
    51   49   52 1   
    52   49   57 1   
    53   50   51 2   
    54   50   62 1   
    55   52   53 1   
    56   52   58 1   
    57   52   59 1   
    58   53   54 1   
    59   53   55 2   
    60   54   60 1   
    61   54   61 1   
    62   62   63 1   
    63   62   66 1   
    64   63   64 1   
    65   63   67 1   
    66   63   68 1   
    67   64   65 2   
    68   64   69 1   
    69   69   70 1   
    70   69   76 1   
    71   70   71 1   
    72   70   73 1   
    73   70   77 1   
    74   71   72 2   
    75   71   83 1   
    76   73   74 1   
    77   73   75 1   
    78   73   78 1   
    79   74   80 1   
    80   74   81 1   
    81   74   82 1   
    82   75   79 1   
    83   83   84 1   
    84   83   91 1   
    85   84   85 1   
    86   84   87 1   
    87   84   92 1   
    88   85   86 2   
    89   85  102 1   
    90   87   88 1   
    91   87   89 1   
    92   87   93 1   
    93   88   90 1   
    94   88   94 1   
    95   88   95 1   
    96   89   96 1   
    97   89   97 1   
    98   89   98 1   
    99   90   99 1   
   100   90  100 1   
   101   90  101 1   
   102  102  103 1   
   103  102  110 1   
   104  103  104 1   
   105  103  106 1   
   106  103  111 1   
   107  104  105 2   
   108  104  114 1   
   109  106  107 1   
   110  106  112 1   
   111  106  113 1   
   112  107  108 1   
   113  107  109 1   
   114  114  115 1   
   115  114  125 1   
   116  115  116 1   
   117  115  118 1   
   118  115  126 1   
   119  116  117 2   
   120  116  134 1   
   121  118  119 1   
   122  118  127 1   
   123  118  128 1   
   124  119  120 ar  
   125  119  121 ar  
   126  120  122 ar  
   127  120  129 1   
   128  121  123 ar  
   129  121  130 1   
   130  122  124 ar  
   131  122  131 1   
   132  123  124 ar  
   133  123  132 1   
   134  124  133 1   
   135  134  135 1   
   136  134  140 1   
   137  135  136 1   
   138  135  138 1   
   139  135  141 1   
   140  136  137 2   
   141  136  148 1   
   142  138  139 1   
   143  138  142 1   
   144  138  143 1   
   145  139  140 1   
   146  139  144 1   
   147  139  145 1   
   148  140  146 1   
   149  140  147 1   
   150  148  149 1   
   151  148  157 1   
   152  149  150 1   
   153  149  152 1   
   154  149  158 1   
   155  150  151 2   
   156  150  163 1   
   157  152  153 1   
   158  152  159 1   
   159  152  160 1   
   160  153  154 1   
   161  153  161 1   
   162  153  162 1   
   163  154  155 1   
   164  154  156 1   
   165  163  164 1   
   166  163  168 1   
   167  164  165 1   
   168  164  166 1   
   169  164  167 1   
   170  170  171 1   
   171  170  172 1   
   172  173  174 1   
   173  173  175 1   
   174  176  177 1   
   175  176  178 1   
@<TRIPOS>SUBSTRUCTURE
     1 MOL         1 TEMP              0 ****  ****    0 ROOT
