@<TRIPOS>MOLECULE
MOL
  189   185     1     0     0
SMALL
resp


@<TRIPOS>ATOM
      1 C1          0.7020    3.1370   -5.7690 c3        1 MOL     -0.382076
      2 C2          1.0270    2.5200   -4.4180 c         1 MOL      0.573578
      3 O1          0.1440    2.5070   -3.5200 o         1 MOL     -0.599647
      4 H1          1.2230    2.5890   -6.5530 hc        1 MOL      0.108831
      5 H2         -0.3730    3.0840   -5.9430 hc        1 MOL      0.108831
      6 H3          1.0220    4.1780   -5.7800 hc        1 MOL      0.108831
      7 N1          2.3390    2.1820   -4.1100 n         1 MOL     -0.541840
      8 C3          2.7800    1.8320   -2.7470 c3        1 MOL      0.263088
      9 C4          3.0810    3.0720   -1.8680 c         1 MOL      0.381839
     10 O2          4.2050    3.5510   -1.8410 o         1 MOL     -0.485860
     11 C5          3.9610    0.8740   -2.8230 c3        1 MOL     -0.233353
     12 C6          4.4500    0.4090   -1.4140 c         1 MOL      0.787579
     13 O3          3.6250    0.5360   -0.4660 o         1 MOL     -0.646078
     14 O4          5.6190   -0.0480   -1.2030 o         1 MOL     -0.646078
     15 H4          3.0070    2.0960   -4.8710 hn        1 MOL      0.325205
     16 H5          1.9750    1.3390   -2.1860 h1        1 MOL     -0.081368
     17 H6          4.7990    1.3550   -3.3080 hc        1 MOL      0.048466
     18 H7          3.6710    0.0010   -3.4140 hc        1 MOL      0.048466
     19 N2          2.0520    3.6210   -1.2330 n         1 MOL     -0.306566
     20 C7          1.9200    4.9780   -0.6210 c3        1 MOL     -0.002863
     21 C8          2.8530    5.1370    0.6010 c         1 MOL      0.364973
     22 O5          3.2620    6.3000    0.9110 o         1 MOL     -0.556714
     23 C9          0.5450    5.4230   -0.3690 c3        1 MOL     -0.172251
     24 C10        -0.2080    5.8370   -1.6400 c3        1 MOL      0.048363
     25 C11        -1.6420    6.3300   -1.4800 c3        1 MOL     -0.111838
     26 C12        -2.4150    6.3040   -2.7680 c3        1 MOL      0.103420
     27 N3         -3.5510    7.2170   -2.6400 n4        1 MOL     -0.525234
     28 H8          1.2100    3.1070   -1.4680 hn        1 MOL      0.369184
     29 H9          2.3570    5.7070   -1.3030 h1        1 MOL      0.081342
     30 H10         0.6250    6.2640    0.3180 hc        1 MOL      0.066281
     31 H11         0.0300    4.6190    0.1530 hc        1 MOL      0.066281
     32 H12        -0.3620    4.9270   -2.2230 hc        1 MOL      0.028363
     33 H13         0.4030    6.3910   -2.3510 hc        1 MOL      0.028363
     34 H14        -1.4790    7.3090   -1.0380 hc        1 MOL      0.048753
     35 H15        -2.1870    5.7670   -0.7180 hc        1 MOL      0.048753
     36 H16        -2.5630    5.2330   -2.9470 hx        1 MOL      0.081911
     37 H17        -1.7310    6.5780   -3.5750 hx        1 MOL      0.081911
     38 H18        -3.2160    8.1630   -2.5620 hn        1 MOL      0.370782
     39 H19        -4.1100    7.1930   -3.4870 hn        1 MOL      0.370782
     40 H20        -4.1680    6.9510   -1.8850 hn        1 MOL      0.370782
     41 N4          2.9260    4.0820    1.3650 n         1 MOL     -0.130133
     42 C13         3.6660    4.0580    2.6390 c3        1 MOL      0.030548
     43 C14         5.0260    3.3820    2.5900 c         1 MOL      0.425518
     44 O6          5.7910    3.4620    3.5720 o         1 MOL     -0.536894
     45 C15         2.6410    3.5520    3.7490 c3        1 MOL     -0.104415
     46 C16         1.9760    2.2400    3.3890 c         1 MOL      0.772220
     47 O7          1.1090    1.7700    4.1510 o         1 MOL     -0.728426
     48 O8          2.4010    1.5810    2.3950 o         1 MOL     -0.728426
     49 H21         2.6170    3.1980    0.9910 hn        1 MOL      0.113280
     50 H22         3.9640    5.0430    2.9890 h1        1 MOL      0.071570
     51 H23         1.8370    4.2740    3.8760 hc        1 MOL      0.023588
     52 H24         3.2130    3.4920    4.6830 hc        1 MOL      0.023588
     53 N5          5.3920    2.7790    1.4920 n         1 MOL     -0.059159
     54 C17         6.7630    2.3700    1.1450 c3        1 MOL     -0.228127
     55 C18         7.1490    1.0120    1.7020 c         1 MOL      0.693792
     56 O9          8.0100    1.0000    2.5530 o         1 MOL     -0.578465
     57 H25         4.7540    2.5580    0.7480 hn        1 MOL      0.097717
     58 H26         7.4880    3.0610    1.5790 h1        1 MOL      0.090943
     59 H27         6.9310    2.4380    0.0690 h1        1 MOL      0.090943
     60 N6          6.5710   -0.1140    1.2840 n         1 MOL     -0.440988
     61 C19         6.9060   -1.4680    1.8560 c3        1 MOL      0.001389
     62 C20         7.0290   -2.7100    0.8770 c         1 MOL      0.372789
     63 O10         7.4040   -3.8290    1.2900 o         1 MOL     -0.502041
     64 C21         5.8490   -1.8620    2.8830 c3        1 MOL     -0.067023
     65 C22         4.3890   -1.7690    2.3720 c         1 MOL      0.498431
     66 O11         3.4910   -1.2750    3.0540 o         1 MOL     -0.634238
     67 O12         4.0730   -2.1510    1.2440 o         1 MOL     -0.634238
     68 H28         5.8230   -0.0270    0.6140 hn        1 MOL      0.202819
     69 H29         7.8580   -1.3560    2.3650 h1        1 MOL      0.101959
     70 H30         5.9400   -1.1370    3.6960 hc        1 MOL      0.054828
     71 H31         6.0910   -2.7950    3.3830 hc        1 MOL      0.054828
     72 N7          6.7130   -2.3950   -0.4330 n         1 MOL     -0.167396
     73 C23         6.7570   -3.2260   -1.5970 c3        1 MOL     -0.101696
     74 C24         5.4490   -4.0660   -1.7390 c         1 MOL      0.561041
     75 O13         5.3930   -5.0200   -2.5150 o         1 MOL     -0.602398
     76 H32         6.1840   -1.5440   -0.5130 hn        1 MOL      0.152649
     77 H33         7.6010   -3.9120   -1.5380 h1        1 MOL      0.075763
     78 H34         6.9250   -2.6000   -2.4670 h1        1 MOL      0.075763
     79 N8          4.3510   -3.6710   -1.0850 n         1 MOL     -0.241121
     80 C25         3.0930   -4.3990   -1.0070 c3        1 MOL     -0.141114
     81 C26         1.8830   -3.4460   -1.2250 c         1 MOL      0.597416
     82 O14         1.9780   -2.2210   -1.0480 o         1 MOL     -0.629510
     83 C27         2.8800   -5.1770    0.2960 c3        1 MOL      0.660915
     84 C28         3.3840   -6.6340    0.0620 c3        1 MOL     -0.369396
     85 O15         3.6160   -4.6460    1.3850 oh        1 MOL     -0.771469
     86 H35         4.5080   -2.9550   -0.3860 hn        1 MOL      0.090496
     87 H36         2.9720   -5.1180   -1.8230 h1        1 MOL      0.081293
     88 H37         1.8250   -5.3180    0.4990 h1        1 MOL     -0.126602
     89 H38         3.6590   -3.6960    1.2470 ho        1 MOL      0.616926
     90 H39         4.4560   -6.5380    0.2230 hc        1 MOL      0.075051
     91 H40         2.9180   -7.3690    0.7150 hc        1 MOL      0.075051
     92 H41         3.2030   -6.9770   -0.9550 hc        1 MOL      0.075051
     93 N9          0.7430   -3.9980   -1.5850 n         1 MOL     -0.532555
     94 C29        -0.5040   -3.2650   -1.8240 c3        1 MOL      0.146703
     95 C30        -1.7660   -3.8860   -0.9910 c         1 MOL      0.402388
     96 O16        -1.9500   -5.0620   -0.8690 o         1 MOL     -0.540463
     97 C31        -0.6780   -2.9260   -3.3430 c3        1 MOL      0.068912
     98 C32         0.4050   -2.0620   -4.0370 c3        1 MOL     -0.063290
     99 C33        -2.1790   -2.4730   -3.6010 c3        1 MOL     -0.522247
    100 C34         0.4350   -0.6230   -3.6470 c3        1 MOL      0.192930
    101 H42         0.8350   -4.9280   -1.9680 hn        1 MOL      0.272889
    102 H43        -0.4040   -2.3260   -1.2850 h1        1 MOL      0.083536
    103 H44        -0.4830   -3.8600   -3.8820 hc        1 MOL      0.028608
    104 H45         0.0880   -2.1110   -5.0730 hc        1 MOL      0.007869
    105 H46         1.4000   -2.5080   -3.9690 hc        1 MOL      0.007869
    106 H47        -2.4610   -1.5190   -3.1710 hc        1 MOL      0.127040
    107 H48        -2.3300   -2.2420   -4.6620 hc        1 MOL      0.127040
    108 H49        -2.9080   -3.2550   -3.3660 hc        1 MOL      0.127040
    109 H50         1.2040   -0.1500   -4.2450 hc        1 MOL     -0.015622
    110 H51        -0.5280   -0.1810   -3.9180 hc        1 MOL     -0.015622
    111 H52         0.6340   -0.5040   -2.5800 hc        1 MOL     -0.015622
    112 N10        -2.5650   -3.0220   -0.4310 n         1 MOL     -0.027866
    113 C35        -3.7510   -3.2360    0.3250 c3        1 MOL     -0.060899
    114 C36        -4.9760   -2.5860   -0.1880 c         1 MOL      0.262248
    115 O17        -4.9220   -1.7830   -1.1010 o         1 MOL     -0.395453
    116 C37        -3.6450   -2.7180    1.8380 c3        1 MOL      0.327517
    117 C38        -2.5680   -3.3880    2.6920 c3        1 MOL     -0.259224
    118 O18        -3.3290   -1.4030    1.7340 oh        1 MOL     -0.589787
    119 H53        -2.3030   -2.0520   -0.4330 hn        1 MOL      0.160854
    120 H54        -3.9370   -4.2850    0.5430 h1        1 MOL      0.043016
    121 H55        -4.5780   -2.8450    2.3770 h1        1 MOL      0.032967
    122 H56        -2.4910   -1.2520    1.2960 ho        1 MOL      0.381299
    123 H57        -2.6380   -4.4690    2.5790 hc        1 MOL      0.063333
    124 H58        -1.5810   -2.9700    2.5310 hc        1 MOL      0.063333
    125 H59        -2.9160   -3.2400    3.7160 hc        1 MOL      0.063333
    126 N11        -6.1530   -2.8320    0.4580 n         1 MOL     -0.080567
    127 C39        -7.4620   -2.1630    0.1890 c3        1 MOL     -0.581238
    128 C40        -7.4350   -0.6440    0.4710 c         1 MOL      0.707754
    129 O19        -8.3010    0.1120    0.0650 o         1 MOL     -0.580021
    130 C41        -8.6500   -2.8840    0.8950 c3        1 MOL      0.432174
    131 C42        -8.9600   -4.2780    0.3320 c3        1 MOL     -0.427684
    132 O20        -8.3700   -2.9740    2.2940 oh        1 MOL     -0.688014
    133 H60        -6.1030   -3.5630    1.1550 hn        1 MOL      0.228496
    134 H61        -7.6020   -2.2000   -0.8950 h1        1 MOL      0.243841
    135 H62        -9.5900   -2.3340    0.8790 h1        1 MOL      0.048164
    136 H63        -9.0590   -3.3550    2.8470 ho        1 MOL      0.430015
    137 H64       -10.0060   -4.4770    0.5630 hc        1 MOL      0.120087
    138 H65        -8.9160   -4.3000   -0.7540 hc        1 MOL      0.120087
    139 H66        -8.2680   -5.0000    0.7480 hc        1 MOL      0.120087
    140 N12        -6.3680   -0.1600    1.0990 n         1 MOL     -0.551818
    141 C43        -6.1740    1.2560    1.0820 c3        1 MOL      0.109660
    142 C44        -5.4040    1.8230   -0.1310 c         1 MOL      0.375001
    143 O21        -5.0200    3.0310   -0.1160 o         1 MOL     -0.550712
    144 C45        -5.4460    1.6410    2.3730 c3        1 MOL     -0.144404
    145 C46        -6.1650    1.1050    3.5870 c3        1 MOL      0.247046
    146 C47        -5.7380    1.9240    4.8030 c3        1 MOL     -0.039143
    147 C48        -6.5120    1.5880    6.0560 c3        1 MOL     -0.054119
    148 N13        -7.8330    2.2840    6.2270 n4        1 MOL     -0.422203
    149 H67        -5.6620   -0.8380    1.3290 hn        1 MOL      0.332255
    150 H68        -7.0220    1.9260    1.0380 h1        1 MOL      0.103674
    151 H69        -5.5360    2.7220    2.3950 hc        1 MOL      0.036667
    152 H70        -4.4110    1.3250    2.2780 hc        1 MOL      0.036667
    153 H71        -5.9880    0.0470    3.7640 hc        1 MOL     -0.046741
    154 H72        -7.2170    1.2750    3.3840 hc        1 MOL     -0.046741
    155 H73        -5.9730    2.9780    4.6450 hc        1 MOL      0.047328
    156 H74        -4.6710    1.8030    5.0210 hc        1 MOL      0.047328
    157 H75        -5.8770    1.8500    6.9060 hx        1 MOL      0.121905
    158 H76        -6.6420    0.5150    6.1670 hx        1 MOL      0.121905
    159 H77        -7.6640    3.2650    6.3860 hn        1 MOL      0.331229
    160 H78        -8.3790    2.2380    5.3820 hn        1 MOL      0.331229
    161 H79        -8.4090    2.0440    7.0160 hn        1 MOL      0.331229
    162 N14        -4.9580    0.9780   -1.1010 n         1 MOL     -0.255642
    163 C49        -4.0520    1.3160   -2.2160 c3        1 MOL     -0.292218
    164 C50        -4.4000    0.6550   -3.5870 c         1 MOL      0.397628
    165 O22        -3.6990    0.7600   -4.5800 o         1 MOL     -0.498247
    166 C51        -2.5960    1.0100   -1.8780 c3        1 MOL      0.250927
    167 C52        -2.0350    1.4390   -0.5190 c3        1 MOL     -0.078851
    168 C53        -0.8670    0.5920   -0.0600 c         1 MOL      0.710633
    169 O23         0.3160    0.9610   -0.1230 o         1 MOL     -0.785817
    170 O24        -1.1190   -0.5800    0.2410 o         1 MOL     -0.785817
    171 H80        -5.1140   -0.0240   -1.0930 hn        1 MOL      0.260367
    172 H81        -4.0370    2.4030   -2.3000 h1        1 MOL      0.159789
    173 H82        -1.9050    1.4540   -2.5930 hc        1 MOL      0.010952
    174 H83        -2.5330   -0.0750   -1.8660 hc        1 MOL      0.010952
    175 H84        -2.8220    1.1760    0.1910 hc        1 MOL      0.018916
    176 H85        -1.7420    2.4940   -0.4910 hc        1 MOL      0.018916
    177 N15        -5.4490   -0.1410   -3.7000 n         1 MOL     -0.196044
    178 C54        -5.9480   -0.9020   -4.8960 c3        1 MOL     -0.197919
    179 H86        -5.4600   -1.8750   -4.9360 h1        1 MOL      0.105700
    180 H87        -7.0260   -1.0390   -4.8160 h1        1 MOL      0.105700
    181 H88        -5.7190   -0.3430   -5.8030 h1        1 MOL      0.105700
    182 H89        -5.9430   -0.2140   -2.8270 hn        1 MOL      0.173836
    183 Ca1         1.8400   -0.5590    1.1810 Ca        1 MOL      1.808644
    184 O25         1.1330   -3.1610    1.8780 oh        1 MOL     -0.882972
    185 H90         0.3680   -3.7320    1.7710 ho        1 MOL      0.406816
    186 H91         1.5730   -3.4910    2.6600 ho        1 MOL      0.406816
    187 O26         0.4380   -0.6080    3.5300 oh        1 MOL     -0.882972
    188 H92        -0.4040   -0.8590    3.8910 ho        1 MOL      0.406816
    189 H93         0.6730    0.2010    3.9950 ho        1 MOL      0.406816
@<TRIPOS>BOND
     1    1    2 1   
     2    1    4 1   
     3    1    5 1   
     4    1    6 1   
     5    2    3 2   
     6    2    7 1   
     7    7    8 1   
     8    7   15 1   
     9    8    9 1   
    10    8   11 1   
    11    8   16 1   
    12    9   10 2   
    13    9   19 1   
    14   11   12 1   
    15   11   17 1   
    16   11   18 1   
    17   12   13 1   
    18   12   14 1   
    19   19   20 1   
    20   19   28 1   
    21   20   21 1   
    22   20   23 1   
    23   20   29 1   
    24   21   22 2   
    25   21   41 1   
    26   23   24 1   
    27   23   30 1   
    28   23   31 1   
    29   24   25 1   
    30   24   32 1   
    31   24   33 1   
    32   25   26 1   
    33   25   34 1   
    34   25   35 1   
    35   26   27 1   
    36   26   36 1   
    37   26   37 1   
    38   27   38 1   
    39   27   39 1   
    40   27   40 1   
    41   41   42 1   
    42   41   49 1   
    43   42   43 1   
    44   42   45 1   
    45   42   50 1   
    46   43   44 2   
    47   43   53 1   
    48   45   46 1   
    49   45   51 1   
    50   45   52 1   
    51   46   47 1   
    52   46   48 1   
    53   53   54 1   
    54   53   57 1   
    55   54   55 1   
    56   54   58 1   
    57   54   59 1   
    58   55   56 2   
    59   55   60 1   
    60   60   61 1   
    61   60   68 1   
    62   61   62 1   
    63   61   64 1   
    64   61   69 1   
    65   62   63 2   
    66   62   72 1   
    67   64   65 1   
    68   64   70 1   
    69   64   71 1   
    70   65   66 1   
    71   65   67 1   
    72   72   73 1   
    73   72   76 1   
    74   73   74 1   
    75   73   77 1   
    76   73   78 1   
    77   74   75 2   
    78   74   79 1   
    79   79   80 1   
    80   79   86 1   
    81   80   81 1   
    82   80   83 1   
    83   80   87 1   
    84   81   82 2   
    85   81   93 1   
    86   83   84 1   
    87   83   85 1   
    88   83   88 1   
    89   84   90 1   
    90   84   91 1   
    91   84   92 1   
    92   85   89 1   
    93   93   94 1   
    94   93  101 1   
    95   94   95 1   
    96   94   97 1   
    97   94  102 1   
    98   95   96 2   
    99   95  112 1   
   100   97   98 1   
   101   97   99 1   
   102   97  103 1   
   103   98  100 1   
   104   98  104 1   
   105   98  105 1   
   106   99  106 1   
   107   99  107 1   
   108   99  108 1   
   109  100  109 1   
   110  100  110 1   
   111  100  111 1   
   112  112  113 1   
   113  112  119 1   
   114  113  114 1   
   115  113  116 1   
   116  113  120 1   
   117  114  115 2   
   118  114  126 1   
   119  116  117 1   
   120  116  118 1   
   121  116  121 1   
   122  117  123 1   
   123  117  124 1   
   124  117  125 1   
   125  118  122 1   
   126  126  127 1   
   127  126  133 1   
   128  127  128 1   
   129  127  130 1   
   130  127  134 1   
   131  128  129 2   
   132  128  140 1   
   133  130  131 1   
   134  130  132 1   
   135  130  135 1   
   136  131  137 1   
   137  131  138 1   
   138  131  139 1   
   139  132  136 1   
   140  140  141 1   
   141  140  149 1   
   142  141  142 1   
   143  141  144 1   
   144  141  150 1   
   145  142  143 2   
   146  142  162 1   
   147  144  145 1   
   148  144  151 1   
   149  144  152 1   
   150  145  146 1   
   151  145  153 1   
   152  145  154 1   
   153  146  147 1   
   154  146  155 1   
   155  146  156 1   
   156  147  148 1   
   157  147  157 1   
   158  147  158 1   
   159  148  159 1   
   160  148  160 1   
   161  148  161 1   
   162  162  163 1   
   163  162  171 1   
   164  163  164 1   
   165  163  166 1   
   166  163  172 1   
   167  164  165 2   
   168  164  177 1   
   169  166  167 1   
   170  166  173 1   
   171  166  174 1   
   172  167  168 1   
   173  167  175 1   
   174  167  176 1   
   175  168  169 1   
   176  168  170 1   
   177  177  178 1   
   178  177  182 1   
   179  178  179 1   
   180  178  180 1   
   181  178  181 1   
   182  184  185 1   
   183  184  186 1   
   184  187  188 1   
   185  187  189 1   
@<TRIPOS>SUBSTRUCTURE
     1 MOL         1 TEMP              0 ****  ****    0 ROOT
