@<TRIPOS>MOLECULE
MOL
  175   173     1     0     0
SMALL
resp


@<TRIPOS>ATOM
      1 C1          0.8320    4.1440    5.4050 c3        1 MOL     -0.416774
      2 C2          0.2810    4.1530    3.8910 c         1 MOL      0.611328
      3 O1          0.9930    4.3660    2.9010 o         1 MOL     -0.502095
      4 H1          0.0010    3.9970    6.0940 hc        1 MOL      0.109448
      5 H2          1.5500    3.3310    5.5260 hc        1 MOL      0.109448
      6 H3          1.3190    5.0940    5.6210 hc        1 MOL      0.109448
      7 N1         -1.0360    3.7940    3.7820 n         1 MOL     -0.560701
      8 C3         -1.9130    3.5270    2.6470 c3        1 MOL      0.025013
      9 C4         -2.0080    4.7780    1.7970 c         1 MOL      0.722378
     10 O2         -1.9610    5.9160    2.2290 o         1 MOL     -0.570399
     11 C5         -3.2650    3.0380    3.0830 c3        1 MOL     -0.411634
     12 C6         -4.1090    2.3370    1.9770 c         1 MOL      0.780950
     13 O3         -3.5810    1.9130    0.9310 o         1 MOL     -0.688437
     14 O4         -5.3150    2.1350    2.1670 o         1 MOL     -0.688437
     15 H4         -1.4430    3.6200    4.6930 hn        1 MOL      0.311173
     16 H5         -1.4860    2.7330    2.0410 h1        1 MOL      0.161993
     17 H6         -3.8030    3.9260    3.4430 hc        1 MOL      0.098207
     18 H7         -3.2360    2.3370    3.9150 hc        1 MOL      0.098207
     19 N2         -2.2170    4.5770    0.4450 n         1 MOL     -0.680493
     20 C7         -2.3960    5.4670   -0.6200 c3        1 MOL      0.461456
     21 C8         -3.5040    5.0480   -1.6060 c         1 MOL      0.455456
     22 O5         -3.6960    5.8010   -2.5600 o         1 MOL     -0.581724
     23 C9         -1.0800    5.7630   -1.3780 c3        1 MOL     -0.415893
     24 H8         -1.9600    3.6450    0.1620 hn        1 MOL      0.347534
     25 H9         -2.7990    6.4240   -0.2700 h1        1 MOL     -0.037539
     26 H10        -0.8490    4.7820   -1.7990 hc        1 MOL      0.104912
     27 H11        -1.1030    6.4170   -2.2500 hc        1 MOL      0.104912
     28 H12        -0.3070    5.9360   -0.6270 hc        1 MOL      0.104912
     29 N3         -4.1990    3.9070   -1.5030 n         1 MOL     -0.450716
     30 C10        -5.1810    3.3710   -2.4980 c3        1 MOL      0.403818
     31 C11        -6.4590    2.7240   -1.9470 c         1 MOL      0.193178
     32 O6         -7.4990    2.7870   -2.6350 o         1 MOL     -0.504315
     33 C12        -4.4720    2.4200   -3.5250 c3        1 MOL     -0.243604
     34 C13        -3.5540    1.3910   -2.9020 c         1 MOL      0.666789
     35 O7         -2.4340    1.2200   -3.3410 o         1 MOL     -0.655938
     36 O8         -3.8250    0.8650   -1.8010 o         1 MOL     -0.655938
     37 H13        -4.0130    3.3150   -0.7050 hn        1 MOL      0.177426
     38 H14        -5.5150    4.2010   -3.1190 h1        1 MOL     -0.001814
     39 H15        -3.7270    2.9870   -4.0820 hc        1 MOL      0.048159
     40 H16        -5.2340    2.0280   -4.1950 hc        1 MOL      0.048159
     41 N4         -6.3070    1.9540   -0.8160 n         1 MOL     -0.066306
     42 C14        -7.3970    1.0740   -0.3610 c3        1 MOL     -0.231869
     43 C15        -7.3310   -0.3450   -0.9140 c         1 MOL      0.490406
     44 O9         -8.3120   -1.1040   -0.7330 o         1 MOL     -0.631980
     45 H17        -5.5140    1.9970   -0.1970 hn        1 MOL      0.131658
     46 H18        -8.3860    1.4310   -0.6410 h1        1 MOL      0.117287
     47 H19        -7.4190    0.9970    0.7270 h1        1 MOL      0.117287
     48 N5         -6.2620   -0.7600   -1.5740 n         1 MOL     -0.138540
     49 C16        -6.1260   -2.0560   -2.2730 c3        1 MOL     -0.166281
     50 C17        -6.0710   -3.2830   -1.3050 c         1 MOL      0.464095
     51 O10        -5.8550   -4.3980   -1.7660 o         1 MOL     -0.538956
     52 C18        -4.9250   -1.9930   -3.2710 c3        1 MOL      0.106527
     53 C19        -3.5810   -2.1110   -2.5460 c         1 MOL      0.435732
     54 N6         -2.4760   -2.1430   -3.2420 n         1 MOL     -0.583069
     55 O11        -3.4570   -2.1630   -1.3350 o         1 MOL     -0.491011
     56 H20        -5.5400   -0.0780   -1.7870 hn        1 MOL      0.166774
     57 H21        -6.9970   -2.1090   -2.9260 h1        1 MOL      0.105213
     58 H22        -5.0140   -1.1320   -3.9340 hc        1 MOL      0.008331
     59 H23        -5.0930   -2.7550   -4.0290 hc        1 MOL      0.008331
     60 H24        -2.5630   -2.0330   -4.2400 hn        1 MOL      0.304016
     61 H25        -1.5440   -2.1000   -2.8590 hn        1 MOL      0.304016
     62 N7         -6.1760   -3.0990    0.0040 n         1 MOL     -0.153676
     63 C20        -6.3730   -4.1630    1.0710 c3        1 MOL     -0.231409
     64 C21        -5.0580   -4.7520    1.5920 c         1 MOL      0.507603
     65 O12        -5.0580   -5.7020    2.3900 o         1 MOL     -0.568489
     66 H26        -6.2380   -2.1440    0.2990 hn        1 MOL      0.205414
     67 H27        -7.0400   -4.9850    0.8370 h1        1 MOL      0.113007
     68 H28        -6.8370   -3.6240    1.9050 h1        1 MOL      0.113007
     69 N8         -3.9760   -4.1750    1.1000 n         1 MOL     -0.079823
     70 C22        -2.5880   -4.5590    1.5230 c3        1 MOL     -0.421166
     71 C23        -1.5870   -3.4010    1.7370 c         1 MOL      0.836924
     72 O13        -1.8240   -2.3450    1.1450 o         1 MOL     -0.712430
     73 C24        -1.9640   -5.5160    0.4660 c3        1 MOL      0.572529
     74 C25        -2.7700   -6.7890    0.3990 c3        1 MOL     -0.438146
     75 O14        -2.1530   -4.9210   -0.8450 oh        1 MOL     -0.624121
     76 H29        -4.0620   -3.3490    0.5160 hn        1 MOL      0.131156
     77 H30        -2.6250   -5.1570    2.4330 h1        1 MOL      0.126725
     78 H31        -0.8980   -5.7070    0.6200 h1        1 MOL     -0.036742
     79 H32        -2.3240   -3.9840   -0.7200 ho        1 MOL      0.378149
     80 H33        -2.6280   -7.2350    1.3910 hc        1 MOL      0.104444
     81 H34        -3.8380   -6.5590    0.3050 hc        1 MOL      0.104444
     82 H35        -2.4600   -7.5100   -0.3560 hc        1 MOL      0.104444
     83 N9         -0.4140   -3.6290    2.3060 n         1 MOL     -0.722043
     84 C26         0.7790   -2.7660    2.2100 c3        1 MOL     -0.024592
     85 C27         1.4880   -2.9190    0.7790 c         1 MOL      0.641262
     86 O15         1.7580   -4.0640    0.4010 o         1 MOL     -0.588566
     87 C28         1.8390   -2.9190    3.3520 c3        1 MOL      0.308023
     88 C29         1.1590   -3.2050    4.6950 c3        1 MOL     -0.100377
     89 C30         2.8320   -1.7620    3.2900 c3        1 MOL     -0.092800
     90 C31         2.1750   -3.4850    5.7920 c3        1 MOL      0.013521
     91 H36        -0.1650   -4.5550    2.6010 hn        1 MOL      0.339757
     92 H37         0.3790   -1.7530    2.2890 h1        1 MOL      0.123584
     93 H38         2.4490   -3.7870    3.1010 hc        1 MOL     -0.057265
     94 H39         0.5210   -4.0640    4.5140 hc        1 MOL      0.008534
     95 H40         0.5550   -2.3360    4.9550 hc        1 MOL      0.008534
     96 H41         2.2980   -0.8180    3.3800 hc        1 MOL     -0.022289
     97 H42         3.7240   -1.7120    3.9080 hc        1 MOL     -0.022289
     98 H43         3.2810   -1.7500    2.3030 hc        1 MOL     -0.022289
     99 H44         1.7150   -4.0140    6.6220 hc        1 MOL     -0.005072
    100 H45         2.9830   -4.1550    5.4840 hc        1 MOL     -0.005072
    101 H46         2.5870   -2.5880    6.2530 hc        1 MOL     -0.005072
    102 N10         1.7960   -1.8230    0.0800 n         1 MOL     -0.413468
    103 C32         2.7180   -1.8840   -1.1030 c3        1 MOL      0.059428
    104 C33         4.1370   -1.5050   -0.6690 c         1 MOL      0.457960
    105 O16         4.2770   -0.7320    0.2930 o         1 MOL     -0.300578
    106 C34         2.1660   -0.8880   -2.1020 c3        1 MOL     -0.436269
    107 C35         0.6500   -1.1540   -2.3570 c         1 MOL      0.815750
    108 O17        -0.2750   -0.5480   -1.8040 o         1 MOL     -0.675327
    109 O18         0.4630   -1.9150   -3.3380 o         1 MOL     -0.675327
    110 H47         1.4040   -0.9280    0.3270 hn        1 MOL      0.188968
    111 H48         2.8450   -2.8810   -1.5200 h1        1 MOL      0.082407
    112 H49         2.6770   -1.0300   -3.0480 hc        1 MOL      0.119426
    113 H50         2.4220    0.1190   -1.7660 hc        1 MOL      0.119426
    114 N11         5.0840   -1.9090   -1.5130 n         1 MOL     -0.610605
    115 C36         6.5450   -1.5130   -1.3500 c3        1 MOL      0.277123
    116 C37         6.7370    0.0390   -1.1380 c         1 MOL      0.295974
    117 O19         7.5600    0.3720   -0.2840 o         1 MOL     -0.449814
    118 C38         7.3220   -2.0610   -2.5610 c3        1 MOL     -0.148750
    119 C39         8.7750   -2.0120   -2.3200 ca        1 MOL      0.030763
    120 C40         9.3320   -2.8200   -1.3550 ca        1 MOL     -0.114322
    121 C41         9.6160   -1.0800   -2.9850 ca        1 MOL     -0.114322
    122 C42        10.6430   -2.7010   -0.9900 ca        1 MOL     -0.166279
    123 C43        10.9320   -0.9690   -2.6000 ca        1 MOL     -0.166279
    124 C44        11.4200   -1.7080   -1.5810 ca        1 MOL     -0.023509
    125 H51         4.8140   -2.4030   -2.3550 hn        1 MOL      0.335347
    126 H52         6.8600   -2.0090   -0.4410 h1        1 MOL      0.061465
    127 H53         7.0850   -1.5210   -3.4820 hc        1 MOL      0.060920
    128 H54         7.1070   -3.1230   -2.6780 hc        1 MOL      0.060920
    129 H55         8.6620   -3.5240   -0.8820 ha        1 MOL      0.105851
    130 H56         9.2270   -0.4420   -3.7640 ha        1 MOL      0.105851
    131 H57        11.0220   -3.2720   -0.1570 ha        1 MOL      0.117698
    132 H58        11.5780   -0.2520   -3.0820 ha        1 MOL      0.117698
    133 H59        12.4360   -1.5540   -1.2580 ha        1 MOL      0.076363
    134 N12         6.0770    1.0070   -1.8840 n         1 MOL     -0.051369
    135 C45         6.1850    2.4300   -1.6600 c3        1 MOL     -0.008054
    136 C46         5.6290    2.8430   -0.3050 c         1 MOL      0.242186
    137 O20         6.1110    3.7970    0.3250 o         1 MOL     -0.505198
    138 C47         5.5210    3.1400   -2.8660 c3        1 MOL     -0.014172
    139 C48         4.6830    2.0220   -3.5300 c3        1 MOL     -0.153064
    140 C49         5.4440    0.7290   -3.1680 c3        1 MOL      0.067896
    141 H60         7.2390    2.6970   -1.6620 h1        1 MOL      0.061019
    142 H61         4.8930    3.9830   -2.5820 hc        1 MOL      0.039989
    143 H62         6.2930    3.5320   -3.5260 hc        1 MOL      0.039989
    144 H63         3.6640    1.9850   -3.1460 hc        1 MOL      0.062078
    145 H64         4.7920    2.1550   -4.6120 hc        1 MOL      0.062078
    146 H65         4.7020   -0.0700   -3.1220 h1        1 MOL      0.003056
    147 H66         6.2010    0.5080   -3.9150 h1        1 MOL      0.003056
    148 N13         4.6420    2.1450    0.2090 n         1 MOL      0.025809
    149 C50         4.0550    2.4270    1.5670 c3        1 MOL     -0.104153
    150 C51         4.9330    1.7870    2.6460 c         1 MOL      0.421670
    151 O21         5.2040    2.3950    3.6780 o         1 MOL     -0.552222
    152 C52         2.6020    1.9260    1.5730 c3        1 MOL      0.047934
    153 C53         1.7710    2.4020    0.3570 c3        1 MOL     -0.159845
    154 C54         0.4420    1.6930    0.2470 c         1 MOL      0.559181
    155 O22        -0.6130    2.1950   -0.3290 o         1 MOL     -0.686099
    156 O23         0.2110    0.6440    0.8780 o         1 MOL     -0.686099
    157 H67         4.2060    1.4390   -0.3620 hn        1 MOL      0.155629
    158 H68         4.0690    3.5050    1.7250 h1        1 MOL      0.100372
    159 H69         2.1470    2.2660    2.5020 hc        1 MOL      0.035487
    160 H70         2.6960    0.8420    1.6190 hc        1 MOL      0.035487
    161 H71         2.3320    2.2620   -0.5610 hc        1 MOL      0.056461
    162 H72         1.6000    3.4650    0.5090 hc        1 MOL      0.056461
    163 N14         5.5470    0.6160    2.3500 n         1 MOL     -0.011011
    164 C55         6.6640    0.1400    3.2280 c3        1 MOL     -0.197419
    165 H73         7.5040   -0.1750    2.6080 h1        1 MOL      0.074547
    166 H74         6.9820    0.9500    3.8850 h1        1 MOL      0.074547
    167 H75         6.3210   -0.7020    3.8290 h1        1 MOL      0.074547
    168 H76         5.4080    0.2180    1.4310 hn        1 MOL      0.025374
    169 Ca1        -2.1190   -0.0120   -0.1310 Ca        1 MOL      1.722090
    170 O24        -1.6850    0.1380    2.7340 oh        1 MOL     -0.728520
    171 H77        -1.8620    0.4400    3.6330 ho        1 MOL      0.359367
    172 H78        -0.7330    0.2330    2.6370 ho        1 MOL      0.359367
    173 O25        -4.6710   -0.7610    1.1930 oh        1 MOL     -0.728520
    174 H79        -4.7470    0.1800    1.3660 ho        1 MOL      0.359367
    175 H80        -5.2000   -1.1710    1.8790 ho        1 MOL      0.359367
@<TRIPOS>BOND
     1    1    2 1   
     2    1    4 1   
     3    1    5 1   
     4    1    6 1   
     5    2    3 2   
     6    2    7 1   
     7    7    8 1   
     8    7   15 1   
     9    8    9 1   
    10    8   11 1   
    11    8   16 1   
    12    9   10 2   
    13    9   19 1   
    14   11   12 1   
    15   11   17 1   
    16   11   18 1   
    17   12   13 1   
    18   12   14 1   
    19   19   20 1   
    20   19   24 1   
    21   20   21 1   
    22   20   23 1   
    23   20   25 1   
    24   21   22 2   
    25   21   29 1   
    26   23   26 1   
    27   23   27 1   
    28   23   28 1   
    29   29   30 1   
    30   29   37 1   
    31   30   31 1   
    32   30   33 1   
    33   30   38 1   
    34   31   32 2   
    35   31   41 1   
    36   33   34 1   
    37   33   39 1   
    38   33   40 1   
    39   34   35 1   
    40   34   36 1   
    41   41   42 1   
    42   41   45 1   
    43   42   43 1   
    44   42   46 1   
    45   42   47 1   
    46   43   44 2   
    47   43   48 1   
    48   48   49 1   
    49   48   56 1   
    50   49   50 1   
    51   49   52 1   
    52   49   57 1   
    53   50   51 2   
    54   50   62 1   
    55   52   53 1   
    56   52   58 1   
    57   52   59 1   
    58   53   54 1   
    59   53   55 2   
    60   54   60 1   
    61   54   61 1   
    62   62   63 1   
    63   62   66 1   
    64   63   64 1   
    65   63   67 1   
    66   63   68 1   
    67   64   65 2   
    68   64   69 1   
    69   69   70 1   
    70   69   76 1   
    71   70   71 1   
    72   70   73 1   
    73   70   77 1   
    74   71   72 2   
    75   71   83 1   
    76   73   74 1   
    77   73   75 1   
    78   73   78 1   
    79   74   80 1   
    80   74   81 1   
    81   74   82 1   
    82   75   79 1   
    83   83   84 1   
    84   83   91 1   
    85   84   85 1   
    86   84   87 1   
    87   84   92 1   
    88   85   86 2   
    89   85  102 1   
    90   87   88 1   
    91   87   89 1   
    92   87   93 1   
    93   88   90 1   
    94   88   94 1   
    95   88   95 1   
    96   89   96 1   
    97   89   97 1   
    98   89   98 1   
    99   90   99 1   
   100   90  100 1   
   101   90  101 1   
   102  102  103 1   
   103  102  110 1   
   104  103  104 1   
   105  103  106 1   
   106  103  111 1   
   107  104  105 2   
   108  104  114 1   
   109  106  107 1   
   110  106  112 1   
   111  106  113 1   
   112  107  108 1   
   113  107  109 1   
   114  114  115 1   
   115  114  125 1   
   116  115  116 1   
   117  115  118 1   
   118  115  126 1   
   119  116  117 2   
   120  116  134 1   
   121  118  119 1   
   122  118  127 1   
   123  118  128 1   
   124  119  120 ar  
   125  119  121 ar  
   126  120  122 ar  
   127  120  129 1   
   128  121  123 ar  
   129  121  130 1   
   130  122  124 ar  
   131  122  131 1   
   132  123  124 ar  
   133  123  132 1   
   134  124  133 1   
   135  134  135 1   
   136  134  140 1   
   137  135  136 1   
   138  135  138 1   
   139  135  141 1   
   140  136  137 2   
   141  136  148 1   
   142  138  139 1   
   143  138  142 1   
   144  138  143 1   
   145  139  140 1   
   146  139  144 1   
   147  139  145 1   
   148  140  146 1   
   149  140  147 1   
   150  148  149 1   
   151  148  157 1   
   152  149  150 1   
   153  149  152 1   
   154  149  158 1   
   155  150  151 2   
   156  150  163 1   
   157  152  153 1   
   158  152  159 1   
   159  152  160 1   
   160  153  154 1   
   161  153  161 1   
   162  153  162 1   
   163  154  155 1   
   164  154  156 1   
   165  163  164 1   
   166  163  168 1   
   167  164  165 1   
   168  164  166 1   
   169  164  167 1   
   170  170  171 1   
   171  170  172 1   
   172  173  174 1   
   173  173  175 1   
@<TRIPOS>SUBSTRUCTURE
     1 MOL         1 TEMP              0 ****  ****    0 ROOT
