@<TRIPOS>MOLECULE
MOL
  179   176     1     0     0
SMALL
resp


@<TRIPOS>ATOM
      1 C1          2.3990    2.0340    5.8260 c3        1 MOL     -0.299744
      2 C2          1.7670    2.1570    4.3940 c         1 MOL      0.761347
      3 O1          2.5640    2.3110    3.4670 o         1 MOL     -0.604140
      4 H1          2.5830    3.0300    6.2270 hc        1 MOL      0.078402
      5 H2          1.7120    1.4990    6.4820 hc        1 MOL      0.078402
      6 H3          3.3410    1.4890    5.7620 hc        1 MOL      0.078402
      7 N1          0.4410    1.9380    4.1820 n         1 MOL     -0.660365
      8 C3         -0.1650    2.0080    2.9000 c3        1 MOL      0.007170
      9 C4          0.0350    3.4510    2.3010 c         1 MOL      0.479170
     10 O2         -0.5430    4.4930    2.7560 o         1 MOL     -0.556367
     11 C5         -1.6530    1.5730    3.1440 c3        1 MOL     -0.016849
     12 C6         -2.5520    1.3690    1.9560 c         1 MOL      0.612014
     13 O3         -3.7670    1.0890    2.2260 o         1 MOL     -0.719671
     14 O4         -2.1690    1.5380    0.7580 o         1 MOL     -0.719671
     15 H4         -0.1980    1.9840    4.9600 hn        1 MOL      0.340417
     16 H5          0.3010    1.3520    2.1560 h1        1 MOL      0.132023
     17 H6         -2.1020    2.2150    3.9110 hc        1 MOL      0.043151
     18 H7         -1.5250    0.5830    3.5690 hc        1 MOL      0.043151
     19 N2          0.7730    3.6390    1.2410 n         1 MOL     -0.104044
     20 C7          1.1540    4.9660    0.6940 c3        1 MOL     -0.251854
     21 C8          0.0570    5.6810   -0.0400 c         1 MOL      0.537063
     22 O5          0.0150    6.9050   -0.1490 o         1 MOL     -0.559340
     23 C9          2.3890    4.5900   -0.1840 c3        1 MOL      0.130578
     24 C10         3.1540    5.9040   -0.6290 c3        1 MOL     -0.303164
     25 C11         4.5340    5.4340   -1.2670 c3        1 MOL      0.190358
     26 C12         5.3280    6.7240   -1.6120 c3        1 MOL      0.013794
     27 N3          5.9070    6.5890   -2.9300 n4        1 MOL     -0.420530
     28 H8          1.0940    2.8040    0.7640 hn        1 MOL      0.141963
     29 H9          1.3680    5.6880    1.4730 h1        1 MOL      0.154006
     30 H10         2.0490    4.1620   -1.1230 hc        1 MOL      0.038573
     31 H11         3.0050    3.8870    0.3610 hc        1 MOL      0.038573
     32 H12         3.3490    6.5450    0.2360 hc        1 MOL      0.082377
     33 H13         2.5640    6.4970   -1.3170 hc        1 MOL      0.082377
     34 H14         4.3630    4.8060   -2.1460 hc        1 MOL     -0.014487
     35 H15         5.1410    4.7840   -0.6370 hc        1 MOL     -0.014487
     36 H16         6.0430    6.9130   -0.8070 hx        1 MOL      0.092527
     37 H17         4.6330    7.5610   -1.6100 hx        1 MOL      0.092527
     38 H18         5.1720    6.8000   -3.5870 hn        1 MOL      0.344108
     39 H19         6.6820    7.2030   -3.0840 hn        1 MOL      0.344108
     40 H20         6.2210    5.6300   -3.0300 hn        1 MOL      0.344108
     41 N4         -0.8870    4.8970   -0.6100 n         1 MOL     -0.172939
     42 C13        -2.0860    5.3780   -1.2940 c3        1 MOL     -0.131626
     43 C14        -3.3480    5.0240   -0.4850 c         1 MOL      0.568240
     44 O6         -4.4250    5.3490   -0.8990 o         1 MOL     -0.566327
     45 C15        -2.1330    4.8170   -2.7400 c3        1 MOL     -0.104755
     46 C16        -1.9040    3.3320   -2.9150 c         1 MOL      0.762823
     47 O7         -1.4530    2.9440   -3.9810 o         1 MOL     -0.719562
     48 O8         -2.2410    2.5570   -1.9450 o         1 MOL     -0.719562
     49 H21        -0.7970    3.8930   -0.4970 hn        1 MOL      0.100132
     50 H22        -2.0970    6.4660   -1.2880 h1        1 MOL      0.121246
     51 H23        -1.3160    5.2850   -3.3020 hc        1 MOL      0.041581
     52 H24        -3.0740    5.0420   -3.2360 hc        1 MOL      0.041581
     53 N5         -3.2980    4.3800    0.6950 n         1 MOL     -0.231375
     54 C17        -4.4720    4.1290    1.5110 c3        1 MOL     -0.206660
     55 C18        -5.4220    3.0670    0.9750 c         1 MOL      0.595701
     56 O9         -6.5960    3.0820    1.3580 o         1 MOL     -0.610490
     57 H25        -2.3660    4.1000    0.9760 hn        1 MOL      0.146154
     58 H26        -4.9930    5.0750    1.6710 h1        1 MOL      0.117880
     59 H27        -4.0300    3.8740    2.4720 h1        1 MOL      0.117880
     60 N6         -4.9680    2.3370   -0.0070 n         1 MOL     -0.109656
     61 C19        -5.9350    1.6120   -0.8100 c3        1 MOL     -0.019545
     62 C20        -6.4400    0.2910   -0.2200 c         1 MOL      0.307114
     63 O10        -7.1750   -0.4010   -0.9170 o         1 MOL     -0.464554
     64 C21        -5.4740    1.4460   -2.2950 c3        1 MOL     -0.279990
     65 C22        -4.5800    0.2960   -2.5390 c         1 MOL      0.738418
     66 N7         -4.4810   -0.1190   -3.7600 n         1 MOL     -0.731438
     67 O11        -3.8830   -0.2830   -1.7350 o         1 MOL     -0.620798
     68 H28        -4.0080    2.3840   -0.3250 hn        1 MOL      0.047824
     69 H29        -6.8000    2.2830   -0.8760 h1        1 MOL      0.124213
     70 H30        -5.0580    2.3970   -2.6300 hc        1 MOL      0.107300
     71 H31        -6.4160    1.3150   -2.8280 hc        1 MOL      0.107300
     72 H32        -4.7520    0.4730   -4.5260 hn        1 MOL      0.342295
     73 H33        -4.1410   -1.0500   -3.9850 hn        1 MOL      0.342295
     74 N8         -6.0000   -0.0660    0.9920 n         1 MOL     -0.187814
     75 C23        -6.4780   -1.2600    1.6780 c3        1 MOL     -0.134657
     76 C24        -5.5800   -2.4410    1.7290 c         1 MOL      0.592423
     77 O12        -5.9380   -3.5090    2.3010 o         1 MOL     -0.570945
     78 H34        -5.3200    0.5010    1.4800 hn        1 MOL      0.295900
     79 H35        -7.4130   -1.5490    1.1980 h1        1 MOL      0.092603
     80 H36        -6.7810   -1.0240    2.7050 h1        1 MOL      0.092603
     81 N9         -4.3760   -2.2730    1.1490 n         1 MOL     -0.367854
     82 C25        -3.3200   -3.3020    1.0070 c3        1 MOL     -0.041045
     83 C26        -1.9210   -2.8450    0.9990 c         1 MOL      0.692825
     84 O13        -1.5900   -1.7410    0.5980 o         1 MOL     -0.754596
     85 C27        -3.5370   -3.9960   -0.3980 c3        1 MOL     -0.062538
     86 C28        -5.0120   -4.4180   -0.7580 ca        1 MOL      0.060223
     87 C29        -5.5930   -5.5320   -0.1910 ca        1 MOL     -0.223258
     88 C30        -5.7530   -3.6630   -1.7120 ca        1 MOL     -0.223258
     89 C31        -6.8980   -5.9120   -0.4610 ca        1 MOL     -0.212404
     90 C32        -7.1270   -3.9600   -1.9470 ca        1 MOL     -0.212404
     91 C33        -7.7110   -5.0920   -1.3370 ca        1 MOL      0.308944
     92 O14        -9.0140   -5.3970   -1.4620 oh        1 MOL     -0.469981
     93 H37        -4.1580   -1.4090    0.6730 hn        1 MOL      0.286365
     94 H38        -3.4640   -4.0560    1.7720 h1        1 MOL      0.081308
     95 H39        -2.8710   -4.8440   -0.5500 hc        1 MOL      0.036917
     96 H40        -3.1230   -3.3820   -1.1970 hc        1 MOL      0.036917
     97 H41        -5.0930   -6.0370    0.6280 ha        1 MOL      0.155941
     98 H42        -5.3290   -2.8020   -2.2050 ha        1 MOL      0.155941
     99 H43        -7.3260   -6.7580    0.0580 ha        1 MOL      0.139729
    100 H44        -7.7170   -3.4480   -2.6830 ha        1 MOL      0.139729
    101 H45        -9.1990   -6.1400   -0.8850 ho        1 MOL      0.357972
    102 N10        -0.9890   -3.7370    1.3830 n         1 MOL     -0.556798
    103 C34         0.4840   -3.4400    1.4870 c3        1 MOL      0.051922
    104 C35         1.1260   -4.2700    0.4210 c         1 MOL      0.582236
    105 O15         0.8080   -5.4550    0.3480 o         1 MOL     -0.566477
    106 C36         1.0190   -3.6950    2.9500 c3        1 MOL      0.017038
    107 C37         0.0900   -3.1360    4.0870 c3        1 MOL     -0.077039
    108 C38         2.3960   -3.0000    3.2580 c3        1 MOL     -0.308911
    109 C39        -0.1890   -1.5890    4.0460 c3        1 MOL     -0.016290
    110 H46        -1.2990   -4.5950    1.8150 hn        1 MOL      0.329837
    111 H47         0.6590   -2.3900    1.2830 h1        1 MOL      0.094606
    112 H48         1.1630   -4.7770    3.0350 hc        1 MOL      0.051135
    113 H49         0.4300   -3.3460    5.0950 hc        1 MOL      0.031499
    114 H50        -0.8550   -3.6510    3.9120 hc        1 MOL      0.031499
    115 H51         2.5050   -1.9730    2.9150 hc        1 MOL      0.074310
    116 H52         2.6290   -3.0410    4.3160 hc        1 MOL      0.074310
    117 H53         3.1850   -3.5290    2.7130 hc        1 MOL      0.074310
    118 H54        -0.9120   -1.2350    3.3130 hc        1 MOL      0.016996
    119 H55        -0.7350   -1.2660    4.9320 hc        1 MOL      0.016996
    120 H56         0.7240   -1.0330    3.8460 hc        1 MOL      0.016996
    121 N11         2.0470   -3.5910   -0.2020 n         1 MOL     -0.379288
    122 C40         2.9930   -4.1050   -1.2330 c3        1 MOL     -0.159473
    123 C41         4.4880   -3.9420   -0.7170 c         1 MOL      0.591055
    124 O16         4.7680   -3.0750    0.1100 o         1 MOL     -0.469058
    125 C42         2.7120   -3.4190   -2.6520 c3        1 MOL      0.030332
    126 O17         2.9850   -2.0260   -2.6210 oh        1 MOL     -0.595693
    127 H57         2.0500   -2.6100    0.0490 hn        1 MOL      0.408593
    128 H58         2.7900   -5.1760   -1.3230 h1        1 MOL      0.082982
    129 H59         1.6920   -3.5140   -3.0120 h1        1 MOL      0.077921
    130 H60         3.3010   -3.8700   -3.4500 h1        1 MOL      0.077921
    131 H61         2.2580   -1.5760   -2.1830 ho        1 MOL      0.427861
    132 N12         5.3710   -4.7620   -1.2250 n         1 MOL     -0.438251
    133 C43         6.7760   -4.7500   -0.7130 c3        1 MOL      0.065287
    134 C44         7.3850   -3.4320   -0.8190 c         1 MOL      0.497404
    135 O18         8.0750   -3.0540    0.0630 o         1 MOL     -0.530926
    136 C45         7.6350   -5.8020   -1.4900 c3        1 MOL     -0.270605
    137 H62         5.0880   -5.3320   -2.0060 hn        1 MOL      0.279120
    138 H63         6.7660   -5.0280    0.3380 h1        1 MOL      0.090750
    139 H64         7.0250   -6.7000   -1.5770 hc        1 MOL      0.090555
    140 H65         7.9240   -5.3380   -2.4380 hc        1 MOL      0.090555
    141 H66         8.5230   -6.1310   -0.9590 hc        1 MOL      0.090555
    142 N13         7.0470   -2.7020   -1.8460 n         1 MOL     -0.252947
    143 C46         7.6120   -1.4000   -2.1940 c3        1 MOL     -0.014495
    144 C47         7.1210   -0.2790   -1.2700 c         1 MOL      0.450435
    145 O19         7.8200    0.7210   -1.0710 o         1 MOL     -0.528939
    146 C48         7.2980   -1.1240   -3.6850 c3        1 MOL     -0.303482
    147 H67         6.3870   -3.0710   -2.5190 hn        1 MOL      0.245782
    148 H68         8.6740   -1.5280   -2.0060 h1        1 MOL      0.105254
    149 H69         8.0090   -0.3740   -4.0400 hc        1 MOL      0.091245
    150 H70         7.3630   -2.0190   -4.2930 hc        1 MOL      0.091245
    151 H71         6.2690   -0.7680   -3.7960 hc        1 MOL      0.091245
    152 N14         5.9210   -0.4360   -0.6370 n         1 MOL     -0.142044
    153 C49         5.3870    0.4890    0.3740 c3        1 MOL     -0.144809
    154 C50         5.9750    0.1820    1.7830 c         1 MOL      0.501378
    155 O20         6.3450    1.1550    2.4650 o         1 MOL     -0.537896
    156 C51         3.8760    0.3640    0.5160 c3        1 MOL      0.372337
    157 C52         3.1640    0.8640   -0.7220 c3        1 MOL      0.005068
    158 C53         1.6760    0.4510   -0.7300 c         1 MOL      0.608320
    159 O21         0.7640    1.2520   -0.4040 o         1 MOL     -0.720504
    160 O22         1.3890   -0.6890   -1.0180 o         1 MOL     -0.720504
    161 H72         5.3990   -1.2980   -0.7280 hn        1 MOL      0.078844
    162 H73         5.6640    1.5380    0.2710 h1        1 MOL      0.091052
    163 H74         3.5530    0.9710    1.3710 hc        1 MOL     -0.079770
    164 H75         3.5980   -0.6440    0.8050 hc        1 MOL     -0.079770
    165 H76         3.6040    0.5290   -1.6570 hc        1 MOL     -0.056247
    166 H77         3.3550    1.9410   -0.7180 hc        1 MOL     -0.056247
    167 N15         6.1530   -1.1080    2.1380 n         1 MOL     -0.230494
    168 C54         6.9640   -1.5400    3.2530 c3        1 MOL     -0.211055
    169 H78         7.2750   -0.6710    3.8330 h1        1 MOL      0.101819
    170 H79         6.3840   -2.2100    3.8870 h1        1 MOL      0.101819
    171 H80         7.8460   -2.0630    2.8810 h1        1 MOL      0.101819
    172 H81         5.7200   -1.7810    1.5230 hn        1 MOL      0.202181
    173 Ca1        -1.3860    0.1930   -1.2470 Ca        1 MOL      1.823094
    174 O23        -0.8840    0.4130   -3.8920 oh        1 MOL     -0.933472
    175 H82        -0.5430    0.0710   -4.7270 ho        1 MOL      0.436294
    176 H83        -1.0960    1.3340   -4.0870 ho        1 MOL      0.436294
    177 O24        -1.0790   -2.0810   -2.4440 oh        1 MOL     -0.933472
    178 H84        -0.9150   -2.1780   -3.3760 ho        1 MOL      0.436294
    179 H85        -1.0050   -2.9750   -2.0930 ho        1 MOL      0.436294
@<TRIPOS>BOND
     1    1    2 1   
     2    1    4 1   
     3    1    5 1   
     4    1    6 1   
     5    2    3 2   
     6    2    7 1   
     7    7    8 1   
     8    7   15 1   
     9    8    9 1   
    10    8   11 1   
    11    8   16 1   
    12    9   10 2   
    13    9   19 1   
    14   11   12 1   
    15   11   17 1   
    16   11   18 1   
    17   12   13 1   
    18   12   14 1   
    19   19   20 1   
    20   19   28 1   
    21   20   21 1   
    22   20   23 1   
    23   20   29 1   
    24   21   22 2   
    25   21   41 1   
    26   23   24 1   
    27   23   30 1   
    28   23   31 1   
    29   24   25 1   
    30   24   32 1   
    31   24   33 1   
    32   25   26 1   
    33   25   34 1   
    34   25   35 1   
    35   26   27 1   
    36   26   36 1   
    37   26   37 1   
    38   27   38 1   
    39   27   39 1   
    40   27   40 1   
    41   41   42 1   
    42   41   49 1   
    43   42   43 1   
    44   42   45 1   
    45   42   50 1   
    46   43   44 2   
    47   43   53 1   
    48   45   46 1   
    49   45   51 1   
    50   45   52 1   
    51   46   47 1   
    52   46   48 1   
    53   53   54 1   
    54   53   57 1   
    55   54   55 1   
    56   54   58 1   
    57   54   59 1   
    58   55   56 2   
    59   55   60 1   
    60   60   61 1   
    61   60   68 1   
    62   61   62 1   
    63   61   64 1   
    64   61   69 1   
    65   62   63 2   
    66   62   74 1   
    67   64   65 1   
    68   64   70 1   
    69   64   71 1   
    70   65   66 1   
    71   65   67 2   
    72   66   72 1   
    73   66   73 1   
    74   74   75 1   
    75   74   78 1   
    76   75   76 1   
    77   75   79 1   
    78   75   80 1   
    79   76   77 2   
    80   76   81 1   
    81   81   82 1   
    82   81   93 1   
    83   82   83 1   
    84   82   85 1   
    85   82   94 1   
    86   83   84 2   
    87   83  102 1   
    88   85   86 1   
    89   85   95 1   
    90   85   96 1   
    91   86   87 ar  
    92   86   88 ar  
    93   87   89 ar  
    94   87   97 1   
    95   88   90 ar  
    96   88   98 1   
    97   89   91 ar  
    98   89   99 1   
    99   90   91 ar  
   100   90  100 1   
   101   91   92 1   
   102   92  101 1   
   103  102  103 1   
   104  102  110 1   
   105  103  104 1   
   106  103  106 1   
   107  103  111 1   
   108  104  105 2   
   109  104  121 1   
   110  106  107 1   
   111  106  108 1   
   112  106  112 1   
   113  107  109 1   
   114  107  113 1   
   115  107  114 1   
   116  108  115 1   
   117  108  116 1   
   118  108  117 1   
   119  109  118 1   
   120  109  119 1   
   121  109  120 1   
   122  121  122 1   
   123  121  127 1   
   124  122  123 1   
   125  122  125 1   
   126  122  128 1   
   127  123  124 2   
   128  123  132 1   
   129  125  126 1   
   130  125  129 1   
   131  125  130 1   
   132  126  131 1   
   133  132  133 1   
   134  132  137 1   
   135  133  134 1   
   136  133  136 1   
   137  133  138 1   
   138  134  135 2   
   139  134  142 1   
   140  136  139 1   
   141  136  140 1   
   142  136  141 1   
   143  142  143 1   
   144  142  147 1   
   145  143  144 1   
   146  143  146 1   
   147  143  148 1   
   148  144  145 2   
   149  144  152 1   
   150  146  149 1   
   151  146  150 1   
   152  146  151 1   
   153  152  153 1   
   154  152  161 1   
   155  153  154 1   
   156  153  156 1   
   157  153  162 1   
   158  154  155 2   
   159  154  167 1   
   160  156  157 1   
   161  156  163 1   
   162  156  164 1   
   163  157  158 1   
   164  157  165 1   
   165  157  166 1   
   166  158  159 1   
   167  158  160 1   
   168  167  168 1   
   169  167  172 1   
   170  168  169 1   
   171  168  170 1   
   172  168  171 1   
   173  174  175 1   
   174  174  176 1   
   175  177  178 1   
   176  177  179 1   
@<TRIPOS>SUBSTRUCTURE
     1 MOL         1 TEMP              0 ****  ****    0 ROOT
