@<TRIPOS>MOLECULE
MOL
  189   185     1     0     0
SMALL
resp


@<TRIPOS>ATOM
      1 C1          0.6460   -3.4550    6.3360 c3        1 MOL     -0.378457
      2 C2          0.7990   -3.1760    4.8020 c         1 MOL      0.731255
      3 O1          0.3510   -2.1500    4.3220 o         1 MOL     -0.618225
      4 H1          0.3650   -4.4970    6.4880 hc        1 MOL      0.094486
      5 H2          1.5930   -3.2570    6.8370 hc        1 MOL      0.094486
      6 H3         -0.1280   -2.8060    6.7470 hc        1 MOL      0.094486
      7 N1          1.3160   -4.1930    4.0460 n         1 MOL     -0.616666
      8 C3          1.8160   -3.9030    2.6940 c3        1 MOL      0.072215
      9 C4          1.5080   -5.0730    1.6840 c         1 MOL      0.527568
     10 O2          1.5790   -6.2770    2.0000 o         1 MOL     -0.570447
     11 C5          3.3670   -3.6200    2.7990 c3        1 MOL     -0.104268
     12 C6          3.9840   -3.5360    1.4040 c         1 MOL      0.583598
     13 O3          3.6940   -2.5590    0.6230 o         1 MOL     -0.625660
     14 O4          4.8090   -4.4440    1.0770 o         1 MOL     -0.625660
     15 H4          1.5690   -5.0320    4.5570 hn        1 MOL      0.332946
     16 H5          1.2290   -3.0470    2.3530 h1        1 MOL      0.118677
     17 H6          3.7670   -4.4410    3.3890 hc        1 MOL      0.008507
     18 H7          3.6670   -2.8150    3.4780 hc        1 MOL      0.008507
     19 N2          1.1510   -4.6090    0.4550 n         1 MOL      0.017527
     20 C7          0.9980   -5.4520   -0.7480 c3        1 MOL     -0.125502
     21 C8          2.0610   -5.1670   -1.8050 c         1 MOL      0.591397
     22 O5          2.3890   -6.1240   -2.4950 o         1 MOL     -0.578302
     23 C9         -0.4720   -5.3380   -1.2860 c3        1 MOL      0.250560
     24 C10        -1.5040   -6.1260   -0.3500 c3        1 MOL     -0.009619
     25 C11        -0.5510   -5.9340   -2.6900 c3        1 MOL     -0.456338
     26 C12        -2.8350   -5.4100   -0.5320 c3        1 MOL     -0.039251
     27 H8          0.9580   -3.6370    0.2910 hn        1 MOL     -0.272937
     28 H9          1.2020   -6.4740   -0.4200 h1        1 MOL      0.059643
     29 H10        -0.7530   -4.2910   -1.3670 hc        1 MOL      0.047238
     30 H11        -1.1490   -5.9020    0.6540 hc        1 MOL     -0.013249
     31 H12        -1.5940   -7.1960   -0.5340 hc        1 MOL     -0.013249
     32 H13         0.0080   -5.2330   -3.3110 hc        1 MOL      0.108236
     33 H14        -0.1150   -6.9350   -2.6660 hc        1 MOL      0.108236
     34 H15        -1.5880   -6.0290   -3.0270 hc        1 MOL      0.108236
     35 H16        -3.5790   -5.7470    0.1960 hc        1 MOL      0.003595
     36 H17        -2.6770   -4.3370   -0.4470 hc        1 MOL      0.003595
     37 H18        -3.2350   -5.6100   -1.5280 hc        1 MOL      0.003595
     38 N3          2.4020   -3.8970   -2.0970 n         1 MOL     -0.365667
     39 C13         3.0990   -3.5940   -3.3890 c3        1 MOL     -0.019139
     40 C14         4.6230   -3.3880   -3.1980 c         1 MOL      0.337979
     41 O6          5.3860   -3.5150   -4.1450 o         1 MOL     -0.540471
     42 C15         2.3480   -2.4100   -4.0650 c3        1 MOL     -0.243593
     43 C16         2.1730   -1.1290   -3.2860 c         1 MOL      0.656748
     44 O7          2.9110   -0.9120   -2.2940 o         1 MOL     -0.657198
     45 O8          1.1730   -0.3860   -3.5730 o         1 MOL     -0.657198
     46 H19         2.2960   -3.1290   -1.4630 hn        1 MOL      0.346417
     47 H20         2.9370   -4.4190   -4.0700 h1        1 MOL      0.122230
     48 H21         1.4410   -2.8120   -4.5050 hc        1 MOL      0.079423
     49 H22         2.8920   -2.2320   -5.0020 hc        1 MOL      0.079423
     50 N4          5.0560   -3.1500   -1.9730 n         1 MOL      0.059322
     51 C17         6.3310   -2.7840   -1.5470 c3        1 MOL     -0.300819
     52 C18         6.8870   -1.3920   -1.9270 c         1 MOL      0.451037
     53 O9          8.1210   -1.1920   -2.1610 o         1 MOL     -0.626783
     54 H23         4.3800   -3.1250   -1.2340 hn        1 MOL      0.003582
     55 H24         6.9440   -3.4340   -2.1720 h1        1 MOL      0.114445
     56 H25         6.5480   -3.0660   -0.5190 h1        1 MOL      0.114445
     57 N5          6.0500   -0.4590   -2.0550 n         1 MOL     -0.027872
     58 C19         6.4180    0.8490   -2.5490 c3        1 MOL     -0.257518
     59 C20         7.0100    1.8110   -1.5190 c         1 MOL      0.483383
     60 O10         7.6190    2.8110   -1.9030 o         1 MOL     -0.570236
     61 C21         5.2620    1.5160   -3.3280 c3        1 MOL     -0.141297
     62 C22         4.0920    1.9450   -2.4750 c         1 MOL      0.739296
     63 O11         3.9170    1.5710   -1.2770 o         1 MOL     -0.717044
     64 O12         3.1520    2.6440   -2.9760 o         1 MOL     -0.717044
     65 H26         5.1010   -0.6840   -1.7860 hn        1 MOL      0.179574
     66 H27         7.1390    0.6870   -3.3370 h1        1 MOL      0.170189
     67 H28         4.9710    0.9090   -4.1870 hc        1 MOL      0.060888
     68 H29         5.5590    2.4000   -3.8880 hc        1 MOL      0.060888
     69 N6          6.9490    1.5720   -0.2430 n         1 MOL     -0.228600
     70 C23         7.4060    2.4520    0.8120 c3        1 MOL     -0.169161
     71 C24         6.3300    3.4260    1.3590 c         1 MOL      0.521101
     72 O13         6.6780    4.1640    2.2580 o         1 MOL     -0.605738
     73 H30         6.5910    0.6820    0.0730 hn        1 MOL      0.220677
     74 H31         8.2980    2.9800    0.4800 h1        1 MOL      0.098165
     75 H32         7.7690    1.8100    1.6140 h1        1 MOL      0.098165
     76 N7          5.1160    3.4320    0.8420 n         1 MOL     -0.320953
     77 C25         3.9040    4.2860    1.2980 c3        1 MOL      0.065194
     78 C26         2.7450    3.2680    1.5610 c         1 MOL      0.475102
     79 O14         2.8480    2.1190    1.2420 o         1 MOL     -0.487209
     80 C27         3.6480    5.3660    0.2260 c3        1 MOL      0.002901
     81 C28         4.6890    6.4520    0.3220 c3        1 MOL     -0.204405
     82 C29         4.5650    7.6820   -0.5970 c         1 MOL      0.665664
     83 N8          5.2530    7.7380   -1.7440 n         1 MOL     -0.838960
     84 O15         3.8100    8.5980   -0.2710 o         1 MOL     -0.581338
     85 H33         4.9270    2.6770    0.2040 hn        1 MOL      0.258262
     86 H34         4.1200    4.8000    2.2350 h1        1 MOL      0.057951
     87 H35         2.6970    5.8450    0.4480 hc        1 MOL      0.037569
     88 H36         3.7030    4.8980   -0.7570 hc        1 MOL      0.037569
     89 H37         5.6520    6.0190    0.0560 hc        1 MOL      0.064995
     90 H38         4.7760    6.8050    1.3530 hc        1 MOL      0.064995
     91 H39         5.7470    6.8930   -1.9780 hn        1 MOL      0.381886
     92 H40         5.0780    8.4630   -2.4320 hn        1 MOL      0.381886
     93 N9          1.5970    3.8070    2.1080 n         1 MOL     -0.631578
     94 C30         0.3700    3.0850    2.5270 c3        1 MOL      0.323357
     95 C31        -0.8600    3.6210    1.7100 c         1 MOL      0.452765
     96 O16        -1.1060    4.8170    1.6690 o         1 MOL     -0.542646
     97 C32         0.2480    2.9960    4.0940 c3        1 MOL      0.057764
     98 C33        -0.0150    4.3360    4.8220 c3        1 MOL     -0.178784
     99 C34        -0.7430    1.8970    4.4120 c3        1 MOL     -0.178784
    100 H41         1.5580    4.7840    2.3460 hn        1 MOL      0.335854
    101 H42         0.5360    2.0400    2.2590 h1        1 MOL      0.044403
    102 H43         1.2050    2.6240    4.4370 hc        1 MOL     -0.000782
    103 H44        -0.1350    4.1750    5.8910 hc        1 MOL      0.036071
    104 H45         0.6750    5.1220    4.5210 hc        1 MOL      0.036071
    105 H46        -0.9960    4.6780    4.4860 hc        1 MOL      0.036071
    106 H47        -1.7050    2.1340    3.9680 hc        1 MOL      0.036071
    107 H48        -0.4210    0.9520    3.9860 hc        1 MOL      0.036071
    108 H49        -0.9330    1.8310    5.4870 hc        1 MOL      0.036071
    109 N10        -1.4410    2.6140    0.9300 n         1 MOL     -0.150103
    110 C35        -2.6390    2.6890    0.1360 c3        1 MOL      0.182942
    111 C36        -3.9660    2.2140    0.7860 c         1 MOL      0.051080
    112 O17        -3.9670    1.4340    1.7710 o         1 MOL     -0.282439
    113 C37        -2.2970    1.8460   -1.0460 c3        1 MOL     -0.218340
    114 C38        -3.3710    1.5900   -2.0170 c         1 MOL      0.810147
    115 N11        -3.8730    2.6010   -2.6400 n         1 MOL     -0.830269
    116 O18        -3.7800    0.4710   -2.1580 o         1 MOL     -0.584408
    117 H50        -1.1060    1.6710    1.0260 hn        1 MOL     -0.048213
    118 H51        -2.8060    3.7240   -0.1760 h1        1 MOL      0.012424
    119 H52        -1.9320    0.8560   -0.7590 hc        1 MOL      0.079959
    120 H53        -1.5590    2.3850   -1.6450 hc        1 MOL      0.079959
    121 H54        -3.5870    3.5550   -2.4560 hn        1 MOL      0.370119
    122 H55        -4.6700    2.3800   -3.2170 hn        1 MOL      0.370119
    123 N12        -5.1540    2.6080    0.3030 n         1 MOL      0.018291
    124 C39        -6.4690    2.3190    0.9020 c3        1 MOL      0.018066
    125 C40        -6.8340    0.8030    0.9320 c         1 MOL      0.487170
    126 O19        -7.5970    0.4360    1.8160 o         1 MOL     -0.579308
    127 C41        -7.5090    3.2650    0.3370 c3        1 MOL     -0.265728
    128 C42        -7.7230    3.2720   -1.1590 ca        1 MOL     -0.019817
    129 C43        -8.5370    2.2840   -1.7570 ca        1 MOL     -0.005897
    130 C44        -7.1650    4.3220   -1.9120 ca        1 MOL     -0.005897
    131 C45        -8.7690    2.3290   -3.1490 ca        1 MOL     -0.490757
    132 C46        -7.4220    4.3120   -3.2940 ca        1 MOL     -0.490757
    133 C47        -8.1440    3.3260   -3.9570 ca        1 MOL      0.601853
    134 O20        -8.3860    3.4390   -5.3090 oh        1 MOL     -0.577257
    135 H56        -5.1700    3.1760   -0.5270 hn        1 MOL      0.041065
    136 H57        -6.2410    2.5880    1.9390 h1        1 MOL      0.076783
    137 H58        -7.2630    4.2650    0.7040 hc        1 MOL      0.089596
    138 H59        -8.4620    2.9960    0.8000 hc        1 MOL      0.089596
    139 H60        -9.0540    1.5930   -1.1120 ha        1 MOL      0.122400
    140 H61        -6.6450    5.1690   -1.4890 ha        1 MOL      0.122400
    141 H62        -9.4210    1.6310   -3.6680 ha        1 MOL      0.187165
    142 H63        -6.8710    5.0260   -3.8880 ha        1 MOL      0.187165
    143 H64        -9.3290    3.2670   -5.3710 ho        1 MOL      0.390337
    144 N13        -6.1980   -0.0310    0.0870 n         1 MOL     -0.032009
    145 C48        -6.3710   -1.4960    0.1570 c3        1 MOL     -0.152159
    146 C49        -5.5000   -2.1230    1.2700 c         1 MOL      0.312648
    147 O21        -5.7750   -3.1840    1.8700 o         1 MOL     -0.511215
    148 C50        -6.0680   -2.1200   -1.2270 c3        1 MOL     -0.172924
    149 C51        -7.0430   -1.4380   -2.2250 c3        1 MOL     -0.040522
    150 C52        -7.2570   -2.2130   -3.5110 c         1 MOL      0.699312
    151 O22        -8.2060   -3.0040   -3.4080 o         1 MOL     -0.754346
    152 O23        -6.5000   -2.1190   -4.4760 o         1 MOL     -0.754346
    153 H65        -5.5530    0.3300   -0.5990 hn        1 MOL      0.068870
    154 H66        -7.4050   -1.7610    0.4110 h1        1 MOL      0.129338
    155 H67        -6.3640   -3.1730   -1.2520 hc        1 MOL      0.108763
    156 H68        -5.0610   -2.0090   -1.6290 hc        1 MOL      0.108763
    157 H69        -6.6410   -0.4950   -2.6100 hc        1 MOL      0.002824
    158 H70        -8.0010   -1.2330   -1.7460 hc        1 MOL      0.002824
    159 N14        -4.4090   -1.4570    1.5750 n         1 MOL     -0.083165
    160 C53        -3.5140   -1.8950    2.6290 c3        1 MOL     -0.088245
    161 C54        -3.9540   -1.3300    4.0200 c         1 MOL      0.448647
    162 O24        -3.7670   -1.9930    5.0930 o         1 MOL     -0.554442
    163 C55        -2.1020   -1.3490    2.2490 c3        1 MOL      0.000361
    164 C56        -1.4790   -2.0840    1.0970 c3        1 MOL      0.087656
    165 C57        -0.2870   -1.3460    0.4480 c         1 MOL      0.736401
    166 O25         0.0750   -0.2300    0.8810 o         1 MOL     -0.659142
    167 O26         0.4360   -1.8650   -0.4220 o         1 MOL     -0.659142
    168 H71        -4.2230   -0.5960    1.0990 hn        1 MOL      0.161371
    169 H72        -3.4300   -2.9730    2.7970 h1        1 MOL      0.084182
    170 H73        -1.4980   -1.4760    3.1390 hc        1 MOL      0.058547
    171 H74        -2.2420   -0.2740    2.1010 hc        1 MOL      0.058547
    172 H75        -2.2520   -2.1450    0.3350 hc        1 MOL     -0.018592
    173 H76        -1.2010   -3.0940    1.3950 hc        1 MOL     -0.018592
    174 N15        -4.6090   -0.1610    4.0260 n         1 MOL     -0.197871
    175 C58        -4.5700    0.8090    5.1630 c3        1 MOL     -0.189652
    176 H77        -4.4970    1.8240    4.7710 h1        1 MOL      0.083813
    177 H78        -5.4810    0.7130    5.7540 h1        1 MOL      0.083813
    178 H79        -3.7050    0.6000    5.7910 h1        1 MOL      0.083813
    179 H80        -4.7140    0.2230    3.1030 hn        1 MOL      0.108156
    180 Ca1         2.5680   -0.1900    0.0990 Ca        1 MOL      1.729011
    181 O27         5.1320   -0.2840    1.3690 oh        1 MOL     -0.887570
    182 H81         4.8510   -0.3120    2.2880 ho        1 MOL      0.420017
    183 H82         5.9350   -0.8080    1.3530 ho        1 MOL      0.420017
    184 O28         2.2040   -0.7210    2.7240 oh        1 MOL     -0.887570
    185 H83         2.7750   -0.6780    3.4990 ho        1 MOL      0.420017
    186 H84         1.3360   -0.8870    3.0780 ho        1 MOL      0.420017
    187 O29         1.0590    1.3970   -1.7100 oh        1 MOL     -0.887570
    188 H85         0.9530    0.7240   -2.3830 ho        1 MOL      0.420017
    189 H86         1.6040    2.0640   -2.1250 ho        1 MOL      0.420017
@<TRIPOS>BOND
     1    1    2 1   
     2    1    4 1   
     3    1    5 1   
     4    1    6 1   
     5    2    3 2   
     6    2    7 1   
     7    7    8 1   
     8    7   15 1   
     9    8    9 1   
    10    8   11 1   
    11    8   16 1   
    12    9   10 2   
    13    9   19 1   
    14   11   12 1   
    15   11   17 1   
    16   11   18 1   
    17   12   13 1   
    18   12   14 1   
    19   19   20 1   
    20   19   27 1   
    21   20   21 1   
    22   20   23 1   
    23   20   28 1   
    24   21   22 2   
    25   21   38 1   
    26   23   24 1   
    27   23   25 1   
    28   23   29 1   
    29   24   26 1   
    30   24   30 1   
    31   24   31 1   
    32   25   32 1   
    33   25   33 1   
    34   25   34 1   
    35   26   35 1   
    36   26   36 1   
    37   26   37 1   
    38   38   39 1   
    39   38   46 1   
    40   39   40 1   
    41   39   42 1   
    42   39   47 1   
    43   40   41 2   
    44   40   50 1   
    45   42   43 1   
    46   42   48 1   
    47   42   49 1   
    48   43   44 1   
    49   43   45 1   
    50   50   51 1   
    51   50   54 1   
    52   51   52 1   
    53   51   55 1   
    54   51   56 1   
    55   52   53 2   
    56   52   57 1   
    57   57   58 1   
    58   57   65 1   
    59   58   59 1   
    60   58   61 1   
    61   58   66 1   
    62   59   60 2   
    63   59   69 1   
    64   61   62 1   
    65   61   67 1   
    66   61   68 1   
    67   62   63 1   
    68   62   64 1   
    69   69   70 1   
    70   69   73 1   
    71   70   71 1   
    72   70   74 1   
    73   70   75 1   
    74   71   72 2   
    75   71   76 1   
    76   76   77 1   
    77   76   85 1   
    78   77   78 1   
    79   77   80 1   
    80   77   86 1   
    81   78   79 2   
    82   78   93 1   
    83   80   81 1   
    84   80   87 1   
    85   80   88 1   
    86   81   82 1   
    87   81   89 1   
    88   81   90 1   
    89   82   83 1   
    90   82   84 2   
    91   83   91 1   
    92   83   92 1   
    93   93   94 1   
    94   93  100 1   
    95   94   95 1   
    96   94   97 1   
    97   94  101 1   
    98   95   96 2   
    99   95  109 1   
   100   97   98 1   
   101   97   99 1   
   102   97  102 1   
   103   98  103 1   
   104   98  104 1   
   105   98  105 1   
   106   99  106 1   
   107   99  107 1   
   108   99  108 1   
   109  109  110 1   
   110  109  117 1   
   111  110  111 1   
   112  110  113 1   
   113  110  118 1   
   114  111  112 2   
   115  111  123 1   
   116  113  114 1   
   117  113  119 1   
   118  113  120 1   
   119  114  115 1   
   120  114  116 2   
   121  115  121 1   
   122  115  122 1   
   123  123  124 1   
   124  123  135 1   
   125  124  125 1   
   126  124  127 1   
   127  124  136 1   
   128  125  126 2   
   129  125  144 1   
   130  127  128 1   
   131  127  137 1   
   132  127  138 1   
   133  128  129 ar  
   134  128  130 ar  
   135  129  131 ar  
   136  129  139 1   
   137  130  132 ar  
   138  130  140 1   
   139  131  133 ar  
   140  131  141 1   
   141  132  133 ar  
   142  132  142 1   
   143  133  134 1   
   144  134  143 1   
   145  144  145 1   
   146  144  153 1   
   147  145  146 1   
   148  145  148 1   
   149  145  154 1   
   150  146  147 2   
   151  146  159 1   
   152  148  149 1   
   153  148  155 1   
   154  148  156 1   
   155  149  150 1   
   156  149  157 1   
   157  149  158 1   
   158  150  151 1   
   159  150  152 1   
   160  159  160 1   
   161  159  168 1   
   162  160  161 1   
   163  160  163 1   
   164  160  169 1   
   165  161  162 2   
   166  161  174 1   
   167  163  164 1   
   168  163  170 1   
   169  163  171 1   
   170  164  165 1   
   171  164  172 1   
   172  164  173 1   
   173  165  166 1   
   174  165  167 1   
   175  174  175 1   
   176  174  179 1   
   177  175  176 1   
   178  175  177 1   
   179  175  178 1   
   180  181  182 1   
   181  181  183 1   
   182  184  185 1   
   183  184  186 1   
   184  187  188 1   
   185  187  189 1   
@<TRIPOS>SUBSTRUCTURE
     1 MOL         1 TEMP              0 ****  ****    0 ROOT
