@<TRIPOS>MOLECULE
MOL
  189   185     1     0     0
SMALL
resp


@<TRIPOS>ATOM
      1 C1         -1.2360    1.6050    6.7560 c3        1 MOL     -0.294329
      2 C2         -1.2910    1.6320    5.2710 c         1 MOL      0.798661
      3 O1         -0.4010    2.1250    4.5740 o         1 MOL     -0.646629
      4 H1         -0.5810    0.7970    7.0800 hc        1 MOL      0.066699
      5 H2         -0.8490    2.5560    7.1230 hc        1 MOL      0.066699
      6 H3         -2.2370    1.4420    7.1540 hc        1 MOL      0.066699
      7 N1         -2.4050    1.1220    4.7090 n         1 MOL     -0.621874
      8 C3         -2.7890    1.1800    3.2890 c3        1 MOL      0.195882
      9 C4         -3.1130    2.6150    2.9380 c         1 MOL      0.529315
     10 O2         -3.7590    3.2870    3.7570 o         1 MOL     -0.590483
     11 C5         -3.9010    0.2200    3.0630 c3        1 MOL     -0.267780
     12 C6         -4.3370    0.1160    1.6040 c         1 MOL      0.657825
     13 O3         -3.5000    0.5370    0.6670 o         1 MOL     -0.596532
     14 O4         -5.5320   -0.1930    1.3650 o         1 MOL     -0.596532
     15 H4         -3.0560    0.7700    5.3860 hn        1 MOL      0.320545
     16 H5         -1.9440    0.8990    2.6560 h1        1 MOL      0.024515
     17 H6         -4.7320    0.4400    3.7400 hc        1 MOL      0.062528
     18 H7         -3.5130   -0.7520    3.3760 hc        1 MOL      0.062528
     19 N2         -2.5490    3.1580    1.8690 n         1 MOL     -0.170074
     20 C7         -2.5720    4.6480    1.5690 c3        1 MOL     -0.048214
     21 C8         -3.5530    4.9980    0.4370 c         1 MOL      0.496836
     22 O5         -3.9820    6.1660    0.3700 o         1 MOL     -0.571932
     23 C9         -1.1860    5.0690    1.2280 c3        1 MOL     -0.215885
     24 C10        -0.7600    4.7050   -0.2460 c3        1 MOL      0.406851
     25 C11         0.7150    4.9940   -0.4460 c3        1 MOL     -0.144519
     26 C12         1.1130    6.4510   -0.6330 c3        1 MOL      0.286944
     27 N3          2.5020    6.7360   -0.9880 n4        1 MOL     -0.492540
     28 H8         -1.9040    2.5250    1.4180 hn        1 MOL      0.148863
     29 H9         -2.8580    5.2590    2.4240 h1        1 MOL      0.112070
     30 H10        -0.4820    4.5860    1.8980 hc        1 MOL      0.073214
     31 H11        -1.1910    6.1450    1.3800 hc        1 MOL      0.073214
     32 H12        -1.2720    5.4340   -0.8740 hc        1 MOL     -0.080845
     33 H13        -1.2540    3.7830   -0.5620 hc        1 MOL     -0.080845
     34 H14         0.8270    4.5460   -1.4380 hc        1 MOL     -0.011412
     35 H15         1.3340    4.4470    0.2630 hc        1 MOL     -0.011412
     36 H16         0.7430    7.0020    0.2310 hx        1 MOL      0.007853
     37 H17         0.5010    6.8540   -1.4420 hx        1 MOL      0.007853
     38 H18         2.8050    6.1180   -1.7330 hn        1 MOL      0.357586
     39 H19         2.5840    7.6730   -1.3460 hn        1 MOL      0.357586
     40 H20         3.0740    6.5800   -0.1700 hn        1 MOL      0.357586
     41 N4         -3.9830    4.0840   -0.4130 n         1 MOL     -0.284944
     42 C13        -4.8330    4.2710   -1.5480 c3        1 MOL      0.111680
     43 C14        -6.0650    3.3680   -1.6470 c         1 MOL      0.458552
     44 O6         -6.8460    3.5310   -2.5630 o         1 MOL     -0.520366
     45 C15        -4.0360    4.1440   -2.8390 c3        1 MOL     -0.220335
     46 C16        -2.9100    3.1060   -2.9140 c         1 MOL      0.875342
     47 O7         -2.8400    2.1890   -2.0910 o         1 MOL     -0.754407
     48 O8         -2.1340    3.1140   -3.9100 o         1 MOL     -0.754407
     49 H21        -3.6200    3.1440   -0.3760 hn        1 MOL      0.008814
     50 H22        -5.1850    5.3080   -1.5620 h1        1 MOL      0.085356
     51 H23        -3.6420    5.1560   -2.9090 hc        1 MOL      0.054449
     52 H24        -4.7080    4.0070   -3.6790 hc        1 MOL      0.054449
     53 N5         -6.2870    2.3780   -0.7700 n         1 MOL     -0.332327
     54 C17        -7.5790    1.7550   -0.7510 c3        1 MOL      0.030478
     55 C18        -7.7480    0.4630   -1.5660 c         1 MOL      0.481533
     56 O9         -8.7960    0.2570   -2.1910 o         1 MOL     -0.549730
     57 H25        -5.5370    1.9700   -0.2300 hn        1 MOL      0.243207
     58 H26        -8.4410    2.3450   -1.0600 h1        1 MOL      0.052747
     59 H27        -7.8760    1.5110    0.2660 h1        1 MOL      0.052747
     60 N6         -6.6670   -0.4330   -1.6450 n         1 MOL     -0.148136
     61 C19        -6.7810   -1.7820   -2.2500 c3        1 MOL     -0.126915
     62 C20        -6.7540   -2.9750   -1.2830 c         1 MOL      0.444623
     63 O10        -6.8940   -4.1170   -1.6880 o         1 MOL     -0.538773
     64 C21        -5.6050   -1.8690   -3.2800 c3        1 MOL     -0.082187
     65 C22        -4.2340   -1.4940   -2.6930 c         1 MOL      0.503484
     66 O11        -3.3400   -0.8790   -3.3940 o         1 MOL     -0.610967
     67 O12        -3.9630   -1.8450   -1.5340 o         1 MOL     -0.610967
     68 H28        -5.9330   -0.2010   -0.9820 hn        1 MOL      0.074515
     69 H29        -7.7580   -1.9300   -2.7030 h1        1 MOL      0.139216
     70 H30        -5.6800   -1.2660   -4.1810 hc        1 MOL      0.049133
     71 H31        -5.6320   -2.9260   -3.5320 hc        1 MOL      0.049133
     72 N7         -6.5320   -2.7850   -0.0330 n         1 MOL     -0.191574
     73 C23        -6.3340   -3.8310    0.9900 c3        1 MOL     -0.232155
     74 C24        -5.0160   -4.6350    0.8080 c         1 MOL      0.497320
     75 O13        -5.0150   -5.8110    1.1410 o         1 MOL     -0.548861
     76 H32        -6.3500   -1.8430    0.2940 hn        1 MOL      0.174760
     77 H33        -7.1640   -4.5290    0.8280 h1        1 MOL      0.129986
     78 H34        -6.4310   -3.3570    1.9620 h1        1 MOL      0.129986
     79 N8         -3.9890   -4.0780    0.1610 n         1 MOL     -0.178698
     80 C25        -2.6000   -4.5970    0.0150 c3        1 MOL     -0.185605
     81 C26        -1.5020   -3.5150    0.3810 c         1 MOL      0.670978
     82 O14        -1.8000   -2.2690    0.3390 o         1 MOL     -0.691752
     83 C27        -2.3920   -5.2580   -1.3540 c3        1 MOL      0.397721
     84 C28        -3.4070   -6.3170   -1.6630 c3        1 MOL     -0.435685
     85 O15        -2.6200   -4.3590   -2.4400 oh        1 MOL     -0.627722
     86 H35        -4.0910   -3.1320   -0.1910 hn        1 MOL      0.206703
     87 H36        -2.5180   -5.3470    0.8030 h1        1 MOL      0.084956
     88 H37        -1.3860   -5.6880   -1.3540 h1        1 MOL      0.006317
     89 H38        -3.4900   -4.0010   -2.2580 ho        1 MOL      0.431427
     90 H39        -4.4260   -5.9540   -1.4960 hc        1 MOL      0.113369
     91 H40        -3.3030   -6.7280   -2.6700 hc        1 MOL      0.113369
     92 H41        -3.2310   -7.0990   -0.9300 hc        1 MOL      0.113369
     93 N9         -0.3610   -3.9620    0.9110 n         1 MOL     -0.655301
     94 C29         0.7790   -3.1510    1.3950 c3        1 MOL      0.203998
     95 C30         2.0320   -3.3300    0.4100 c         1 MOL      0.422151
     96 O16         2.5790   -4.4710    0.3600 o         1 MOL     -0.539008
     97 C31         0.9130   -3.3640    2.9160 c3        1 MOL      0.050648
     98 C32        -0.1730   -2.5250    3.6800 c3        1 MOL     -0.058690
     99 C33         2.3170   -3.0190    3.4100 c3        1 MOL     -0.189447
    100 C34        -0.0810   -2.7590    5.2040 c3        1 MOL     -0.324172
    101 H42        -0.3580   -4.9510    1.1170 hn        1 MOL      0.316806
    102 H43         0.4530   -2.1140    1.2880 h1        1 MOL      0.104494
    103 H44         0.8490   -4.4450    3.0800 hc        1 MOL      0.029616
    104 H45        -1.1590   -2.8600    3.3610 hc        1 MOL      0.073476
    105 H46        -0.0740   -1.4500    3.5400 hc        1 MOL      0.073476
    106 H47         2.4210   -1.9420    3.3210 hc        1 MOL      0.034605
    107 H48         2.4970   -3.4140    4.4150 hc        1 MOL      0.034605
    108 H49         3.0320   -3.4390    2.7070 hc        1 MOL      0.034605
    109 H50        -1.0320   -2.5020    5.6790 hc        1 MOL      0.090252
    110 H51         0.2520   -3.7570    5.4910 hc        1 MOL      0.090252
    111 H52         0.6550   -2.0540    5.5910 hc        1 MOL      0.090252
    112 N10         2.3820   -2.2870   -0.3210 n         1 MOL     -0.119408
    113 C35         3.5620   -2.3100   -1.1470 c3        1 MOL     -0.145171
    114 C36         4.9290   -2.2050   -0.3420 c         1 MOL      0.386043
    115 O17         5.0220   -1.7830    0.8520 o         1 MOL     -0.326170
    116 C37         3.6360   -1.2440   -2.2780 c3        1 MOL      0.263491
    117 C38         2.6030   -1.2300   -3.3540 c3        1 MOL     -0.519483
    118 O18         3.5940   -0.0330   -1.5920 oh        1 MOL     -0.506521
    119 H53         1.7520   -1.4920   -0.3530 hn        1 MOL      0.273965
    120 H54         3.6280   -3.2670   -1.6480 h1        1 MOL      0.076944
    121 H55         4.6310   -1.2090   -2.7340 h1        1 MOL      0.025673
    122 H56         2.7020    0.2050   -1.3490 ho        1 MOL      0.329388
    123 H57         2.4410   -2.2080   -3.8030 hc        1 MOL      0.150678
    124 H58         1.7070   -0.8230   -2.8950 hc        1 MOL      0.150678
    125 H59         2.9720   -0.5020   -4.0740 hc        1 MOL      0.150678
    126 N11         6.0640   -2.4470   -0.9930 n         1 MOL     -0.349814
    127 C39         7.4140   -2.2140   -0.3540 c3        1 MOL     -0.106624
    128 C40         7.5780   -0.7280    0.1730 c         1 MOL      0.127306
    129 O19         8.0810   -0.5410    1.2990 o         1 MOL     -0.426281
    130 C41         8.6090   -2.3950   -1.2980 c3        1 MOL      0.274058
    131 C42         8.8090   -3.8400   -1.7460 c3        1 MOL     -0.395845
    132 O20         8.4460   -1.6670   -2.5190 oh        1 MOL     -0.603385
    133 H60         6.0930   -2.7560   -1.9540 hn        1 MOL      0.282290
    134 H61         7.3830   -2.9760    0.4310 h1        1 MOL      0.185448
    135 H62         9.5320   -2.0680   -0.8210 h1        1 MOL      0.069735
    136 H63         9.2930   -1.8490   -2.9280 ho        1 MOL      0.332400
    137 H64         9.2740   -4.3710   -0.9090 hc        1 MOL      0.118902
    138 H65         7.8910   -4.2610   -2.1380 hc        1 MOL      0.118902
    139 H66         9.5280   -3.8440   -2.5610 hc        1 MOL      0.118902
    140 N12         6.9690    0.2910   -0.4850 n         1 MOL      0.035765
    141 C43         6.9460    1.6980   -0.0290 c3        1 MOL     -0.032895
    142 C44         5.9270    1.9050    1.1200 c         1 MOL      0.308209
    143 O21         6.2810    2.7080    1.9830 o         1 MOL     -0.503474
    144 C45         6.6320    2.5770   -1.2520 c3        1 MOL     -0.065631
    145 C46         7.8600    2.8310   -2.1720 c3        1 MOL      0.174560
    146 C47         8.5870    1.6660   -2.8170 c3        1 MOL     -0.338061
    147 C48         9.1840    2.1000   -4.1580 c3        1 MOL      0.161307
    148 N13         9.6470    0.9620   -4.9500 n4        1 MOL     -0.242462
    149 H67         6.6570    0.0660   -1.4210 hn        1 MOL      0.170971
    150 H68         7.8990    1.9350    0.4540 h1        1 MOL      0.098421
    151 H69         6.2200    3.5470   -0.9580 hc        1 MOL      0.012317
    152 H70         5.8580    2.1360   -1.8860 hc        1 MOL      0.012317
    153 H71         8.5430    3.5480   -1.7250 hc        1 MOL     -0.003656
    154 H72         7.3350    3.3860   -2.9450 hc        1 MOL     -0.003656
    155 H73         7.9550    0.8310   -3.1060 hc        1 MOL      0.114818
    156 H74         9.3490    1.3700   -2.0900 hc        1 MOL      0.114818
    157 H75        10.0660    2.7220   -4.0140 hx        1 MOL      0.038065
    158 H76         8.5090    2.7230   -4.7480 hx        1 MOL      0.038065
    159 H77         8.9440    0.2530   -5.0740 hn        1 MOL      0.281610
    160 H78        10.0780    1.3060   -5.7940 hn        1 MOL      0.281610
    161 H79        10.4260    0.5930   -4.4170 hn        1 MOL      0.281610
    162 N14         4.7920    1.2040    1.1480 n         1 MOL     -0.052227
    163 C49         3.8320    1.2300    2.3100 c3        1 MOL     -0.163085
    164 C50         4.3860    0.4140    3.5300 c         1 MOL      0.481531
    165 O22         3.9130    0.6860    4.6240 o         1 MOL     -0.529088
    166 C51         2.4880    0.5560    1.9030 c3        1 MOL      0.112891
    167 C52         1.6790    1.4850    0.9800 c3        1 MOL     -0.051659
    168 C53         0.4360    0.8050    0.3550 c         1 MOL      0.762947
    169 O23         0.6270   -0.1000   -0.4840 o         1 MOL     -0.762144
    170 O24        -0.6770    1.2360    0.5540 o         1 MOL     -0.762144
    171 H80         4.5720    0.5860    0.3810 hn        1 MOL      0.011925
    172 H81         3.6690    2.2820    2.5470 h1        1 MOL      0.124641
    173 H82         1.8800    0.2100    2.7470 hc        1 MOL      0.012451
    174 H83         2.7870   -0.3580    1.3960 hc        1 MOL      0.012451
    175 H84         2.3250    1.9080    0.2080 hc        1 MOL     -0.002585
    176 H85         1.4000    2.3770    1.5290 hc        1 MOL     -0.002585
    177 N15         5.3030   -0.5190    3.3370 n         1 MOL     -0.145797
    178 C54         5.8520   -1.3890    4.3510 c3        1 MOL     -0.412296
    179 H86         6.0730   -2.3620    3.9130 h1        1 MOL      0.144985
    180 H87         6.7690   -0.9530    4.7470 h1        1 MOL      0.144985
    181 H88         5.1280   -1.5100    5.1580 h1        1 MOL      0.144985
    182 H89         5.5710   -0.7130    2.3770 hn        1 MOL      0.207209
    183 Ca1        -1.9630   -0.1110   -1.2340 Ca        1 MOL      1.789693
    184 O25        -0.7570   -2.2120   -2.2570 oh        1 MOL     -0.892232
    185 H90        -0.9600   -3.1500   -2.2310 ho        1 MOL      0.413409
    186 H91        -0.5330   -2.0490   -3.1720 ho        1 MOL      0.413409
    187 O26        -0.9280    0.6240   -3.5690 oh        1 MOL     -0.892232
    188 H92        -0.1860    0.7820   -4.1500 ho        1 MOL      0.413409
    189 H93        -1.4700    1.3980   -3.6510 ho        1 MOL      0.413409
@<TRIPOS>BOND
     1    1    2 1   
     2    1    4 1   
     3    1    5 1   
     4    1    6 1   
     5    2    3 2   
     6    2    7 1   
     7    7    8 1   
     8    7   15 1   
     9    8    9 1   
    10    8   11 1   
    11    8   16 1   
    12    9   10 2   
    13    9   19 1   
    14   11   12 1   
    15   11   17 1   
    16   11   18 1   
    17   12   13 1   
    18   12   14 1   
    19   19   20 1   
    20   19   28 1   
    21   20   21 1   
    22   20   23 1   
    23   20   29 1   
    24   21   22 2   
    25   21   41 1   
    26   23   24 1   
    27   23   30 1   
    28   23   31 1   
    29   24   25 1   
    30   24   32 1   
    31   24   33 1   
    32   25   26 1   
    33   25   34 1   
    34   25   35 1   
    35   26   27 1   
    36   26   36 1   
    37   26   37 1   
    38   27   38 1   
    39   27   39 1   
    40   27   40 1   
    41   41   42 1   
    42   41   49 1   
    43   42   43 1   
    44   42   45 1   
    45   42   50 1   
    46   43   44 2   
    47   43   53 1   
    48   45   46 1   
    49   45   51 1   
    50   45   52 1   
    51   46   47 1   
    52   46   48 1   
    53   53   54 1   
    54   53   57 1   
    55   54   55 1   
    56   54   58 1   
    57   54   59 1   
    58   55   56 2   
    59   55   60 1   
    60   60   61 1   
    61   60   68 1   
    62   61   62 1   
    63   61   64 1   
    64   61   69 1   
    65   62   63 2   
    66   62   72 1   
    67   64   65 1   
    68   64   70 1   
    69   64   71 1   
    70   65   66 1   
    71   65   67 1   
    72   72   73 1   
    73   72   76 1   
    74   73   74 1   
    75   73   77 1   
    76   73   78 1   
    77   74   75 2   
    78   74   79 1   
    79   79   80 1   
    80   79   86 1   
    81   80   81 1   
    82   80   83 1   
    83   80   87 1   
    84   81   82 2   
    85   81   93 1   
    86   83   84 1   
    87   83   85 1   
    88   83   88 1   
    89   84   90 1   
    90   84   91 1   
    91   84   92 1   
    92   85   89 1   
    93   93   94 1   
    94   93  101 1   
    95   94   95 1   
    96   94   97 1   
    97   94  102 1   
    98   95   96 2   
    99   95  112 1   
   100   97   98 1   
   101   97   99 1   
   102   97  103 1   
   103   98  100 1   
   104   98  104 1   
   105   98  105 1   
   106   99  106 1   
   107   99  107 1   
   108   99  108 1   
   109  100  109 1   
   110  100  110 1   
   111  100  111 1   
   112  112  113 1   
   113  112  119 1   
   114  113  114 1   
   115  113  116 1   
   116  113  120 1   
   117  114  115 2   
   118  114  126 1   
   119  116  117 1   
   120  116  118 1   
   121  116  121 1   
   122  117  123 1   
   123  117  124 1   
   124  117  125 1   
   125  118  122 1   
   126  126  127 1   
   127  126  133 1   
   128  127  128 1   
   129  127  130 1   
   130  127  134 1   
   131  128  129 2   
   132  128  140 1   
   133  130  131 1   
   134  130  132 1   
   135  130  135 1   
   136  131  137 1   
   137  131  138 1   
   138  131  139 1   
   139  132  136 1   
   140  140  141 1   
   141  140  149 1   
   142  141  142 1   
   143  141  144 1   
   144  141  150 1   
   145  142  143 2   
   146  142  162 1   
   147  144  145 1   
   148  144  151 1   
   149  144  152 1   
   150  145  146 1   
   151  145  153 1   
   152  145  154 1   
   153  146  147 1   
   154  146  155 1   
   155  146  156 1   
   156  147  148 1   
   157  147  157 1   
   158  147  158 1   
   159  148  159 1   
   160  148  160 1   
   161  148  161 1   
   162  162  163 1   
   163  162  171 1   
   164  163  164 1   
   165  163  166 1   
   166  163  172 1   
   167  164  165 2   
   168  164  177 1   
   169  166  167 1   
   170  166  173 1   
   171  166  174 1   
   172  167  168 1   
   173  167  175 1   
   174  167  176 1   
   175  168  169 1   
   176  168  170 1   
   177  177  178 1   
   178  177  182 1   
   179  178  179 1   
   180  178  180 1   
   181  178  181 1   
   182  184  185 1   
   183  184  186 1   
   184  187  188 1   
   185  187  189 1   
@<TRIPOS>SUBSTRUCTURE
     1 MOL         1 TEMP              0 ****  ****    0 ROOT
