@<TRIPOS>MOLECULE
MOL
  186   183     1     0     0
SMALL
resp


@<TRIPOS>ATOM
      1 C1          1.0290   -1.4510    6.7050 c3        1 MOL     -0.312763
      2 C2          1.3590   -1.4060    5.2090 c         1 MOL      0.785702
      3 O1          0.4740   -1.6560    4.3790 o         1 MOL     -0.616531
      4 H1          0.3190   -2.2560    6.8950 hc        1 MOL      0.069101
      5 H2          1.9400   -1.6300    7.2740 hc        1 MOL      0.069101
      6 H3          0.5900   -0.5010    7.0100 hc        1 MOL      0.069101
      7 N1          2.6270   -1.2190    4.7730 n         1 MOL     -0.711369
      8 C3          2.9930   -1.3050    3.3120 c3        1 MOL      0.227576
      9 C4          3.2520   -2.7670    2.9660 c         1 MOL      0.556524
     10 O2          3.9670   -3.4970    3.6290 o         1 MOL     -0.582339
     11 C5          4.2590   -0.3820    2.9920 c3        1 MOL     -0.176327
     12 C6          4.6940   -0.6610    1.5080 c         1 MOL      0.839003
     13 O3          5.9200   -0.4740    1.2980 o         1 MOL     -0.717478
     14 O4          3.8240   -0.9910    0.7010 o         1 MOL     -0.717478
     15 H4          3.3700   -1.0060    5.4230 hn        1 MOL      0.336344
     16 H5          2.1970   -0.9260    2.6530 h1        1 MOL     -0.028403
     17 H6          5.0430   -0.6400    3.7090 hc        1 MOL      0.009645
     18 H7          3.8630    0.6320    3.0560 hc        1 MOL      0.009645
     19 N2          2.5980   -3.1890    1.8570 n         1 MOL     -0.361456
     20 C7          2.5070   -4.6800    1.6180 c3        1 MOL     -0.176595
     21 C8          3.3760   -5.0650    0.3770 c         1 MOL      0.750940
     22 O5          3.7930   -6.2370    0.3130 o         1 MOL     -0.634961
     23 C9          1.0660   -5.1740    1.3430 c3        1 MOL      0.179794
     24 C10         0.1110   -4.6560    2.4230 c3        1 MOL      0.176692
     25 C11         0.9980   -6.6940    1.3540 c3        1 MOL     -0.289714
     26 C12        -1.2450   -5.3180    2.4660 c3        1 MOL     -0.140152
     27 H8          2.0290   -2.5330    1.3340 hn        1 MOL      0.333604
     28 H9          2.9980   -5.2500    2.4110 h1        1 MOL      0.089084
     29 H10         0.8620   -4.7420    0.3560 hc        1 MOL      0.025631
     30 H11         0.0400   -3.5720    2.3390 hc        1 MOL     -0.029308
     31 H12         0.4310   -4.7950    3.4580 hc        1 MOL     -0.029308
     32 H13         1.3450   -7.1170    2.2930 hc        1 MOL      0.054869
     33 H14        -0.0260   -7.0600    1.2660 hc        1 MOL      0.054869
     34 H15         1.5150   -7.0210    0.4460 hc        1 MOL      0.054869
     35 H16        -1.5910   -5.3050    1.4400 hc        1 MOL      0.015522
     36 H17        -1.2770   -6.3360    2.8410 hc        1 MOL      0.015522
     37 H18        -1.9620   -4.6950    3.0060 hc        1 MOL      0.015522
     38 N3          3.8260   -4.1330   -0.4590 n         1 MOL     -0.501046
     39 C13         4.5860   -4.3480   -1.7400 c3        1 MOL     -0.116328
     40 C14         5.8060   -3.4840   -2.0440 c         1 MOL      0.428214
     41 O6          6.2530   -3.3290   -3.1940 o         1 MOL     -0.466395
     42 C15         3.5800   -4.2770   -2.9340 c3        1 MOL     -0.142498
     43 C16         2.7690   -2.9770   -3.1820 c         1 MOL      0.742262
     44 O7          2.2110   -2.8850   -4.3040 o         1 MOL     -0.705902
     45 O8          2.5830   -2.0870   -2.3390 o         1 MOL     -0.705902
     46 H19         3.4250   -3.2100   -0.3380 hn        1 MOL      0.190391
     47 H20         4.9170   -5.3910   -1.6360 h1        1 MOL      0.123444
     48 H21         2.8530   -5.0430   -2.6930 hc        1 MOL      0.057002
     49 H22         4.0160   -4.7590   -3.8110 hc        1 MOL      0.057002
     50 N4          6.2770   -2.8750   -0.9550 n         1 MOL     -0.098664
     51 C17         7.5910   -2.4000   -0.8890 c3        1 MOL     -0.353001
     52 C18         7.8480   -1.1290   -1.6480 c         1 MOL      0.642910
     53 O9          8.6110   -1.1630   -2.6510 o         1 MOL     -0.577621
     54 H23         5.7390   -2.8530   -0.1050 hn        1 MOL      0.220737
     55 H24         8.2730   -3.1740   -1.2440 h1        1 MOL      0.115135
     56 H25         7.8910   -2.2720    0.1580 h1        1 MOL      0.115135
     57 N5          7.2270    0.0160   -1.2100 n         1 MOL     -0.469125
     58 C19         7.2760    1.3460   -1.8050 c3        1 MOL      0.066147
     59 C20         7.0700    2.5470   -0.8770 c         1 MOL      0.420938
     60 O10         7.2400    3.7310   -1.1860 o         1 MOL     -0.547611
     61 C21         6.2170    1.4320   -2.9170 c3        1 MOL     -0.163968
     62 C22         4.7800    1.0400   -2.4290 c         1 MOL      0.880591
     63 O11         3.8960    0.7090   -3.2100 o         1 MOL     -0.756091
     64 O12         4.4840    1.2310   -1.2120 o         1 MOL     -0.756091
     65 H26         6.6120   -0.1300   -0.4190 hn        1 MOL      0.154554
     66 H27         8.2630    1.4870   -2.2560 h1        1 MOL      0.066532
     67 H28         6.4260    0.6770   -3.6680 hc        1 MOL      0.040555
     68 H29         6.2020    2.4220   -3.3760 hc        1 MOL      0.040555
     69 N6          6.7130    2.2620    0.3760 n         1 MOL     -0.226483
     70 C23         6.7830    3.2210    1.5030 c3        1 MOL     -0.175626
     71 C24         5.5470    4.0010    1.6890 c         1 MOL      0.616129
     72 O13         5.5020    4.9180    2.4960 o         1 MOL     -0.616495
     73 H30         6.5950    1.2970    0.6390 hn        1 MOL      0.285891
     74 H31         7.5880    3.9340    1.3280 h1        1 MOL      0.084372
     75 H32         6.9460    2.6260    2.4000 h1        1 MOL      0.084372
     76 N7          4.5050    3.7150    0.8720 n         1 MOL     -0.260460
     77 C25         3.1660    4.2860    0.9120 c3        1 MOL     -0.016640
     78 C26         2.0430    3.2770    1.0610 c         1 MOL      0.585913
     79 O14         2.1210    2.1390    0.5940 o         1 MOL     -0.556700
     80 C27         2.9390    5.2270   -0.2330 c3        1 MOL      0.028451
     81 C28         3.9370    6.3770   -0.2680 c3        1 MOL     -0.241889
     82 C29         3.6440    7.2060   -1.4800 c         1 MOL      0.636674
     83 N8          3.0770    8.4230   -1.4070 n         1 MOL     -0.774311
     84 O15         3.8610    6.7920   -2.5750 o         1 MOL     -0.524770
     85 H33         4.5220    2.8160    0.4140 hn        1 MOL      0.186489
     86 H34         3.1520    4.8300    1.8560 h1        1 MOL      0.033812
     87 H35         1.9590    5.6950   -0.0810 hc        1 MOL      0.032206
     88 H36         2.8830    4.6600   -1.1580 hc        1 MOL      0.032206
     89 H37         4.9640    6.0180   -0.2530 hc        1 MOL      0.075408
     90 H38         3.6660    6.9340    0.6270 hc        1 MOL      0.075408
     91 H39         2.9190    8.8850   -0.5270 hn        1 MOL      0.333635
     92 H40         3.0750    8.9690   -2.2590 hn        1 MOL      0.333635
     93 N9          0.8860    3.6420    1.7130 n         1 MOL     -0.515392
     94 C30        -0.2740    2.7500    1.8080 c3        1 MOL      0.136755
     95 C31        -1.4140    3.4070    1.0480 c         1 MOL      0.263310
     96 O16        -1.7090    4.6030    1.1970 o         1 MOL     -0.547490
     97 C32        -0.6700    2.6950    3.2940 c3        1 MOL      0.464289
     98 C33        -1.9130    1.7930    3.4540 c3        1 MOL     -0.455752
     99 C34         0.4090    2.1880    4.1780 c3        1 MOL     -0.455752
    100 H41         0.9340    4.4630    2.2980 hn        1 MOL      0.272080
    101 H42        -0.1390    1.7280    1.4710 h1        1 MOL      0.047683
    102 H43        -1.0740    3.6500    3.6340 hc        1 MOL     -0.076240
    103 H44        -1.5230    0.8140    3.1870 hc        1 MOL      0.095564
    104 H45        -2.1940    1.8730    4.5100 hc        1 MOL      0.095564
    105 H46        -2.7560    2.0930    2.8350 hc        1 MOL      0.095564
    106 H47         1.2580    2.8760    4.2470 hc        1 MOL      0.095564
    107 H48        -0.0270    1.9470    5.1470 hc        1 MOL      0.095564
    108 H49         0.8790    1.2540    3.8890 hc        1 MOL      0.095564
    109 N10        -2.0390    2.6300    0.1100 n         1 MOL     -0.032789
    110 C35        -3.1340    3.0190   -0.7880 c3        1 MOL      0.087007
    111 C36        -4.4960    2.3510   -0.3220 c         1 MOL      0.295692
    112 O17        -4.5170    1.6050    0.6730 o         1 MOL     -0.297336
    113 C37        -2.6090    2.6090   -2.1690 c3        1 MOL     -0.212539
    114 C38        -3.1840    1.3250   -2.7190 c         1 MOL      0.587781
    115 N11        -2.4680    0.2380   -2.5740 n         1 MOL     -0.633047
    116 O18        -4.3240    1.2420   -3.2300 o         1 MOL     -0.617323
    117 H50        -1.7380    1.6700    0.0560 hn        1 MOL      0.100463
    118 H51        -3.2460    4.0950   -0.7470 h1        1 MOL      0.063647
    119 H52        -1.5160    2.5860   -2.1520 hc        1 MOL      0.063432
    120 H53        -2.8660    3.3470   -2.9230 hc        1 MOL      0.063432
    121 H54        -1.5950    0.1430   -2.0620 hn        1 MOL      0.341763
    122 H55        -2.6400   -0.5360   -3.2030 hn        1 MOL      0.341763
    123 N12        -5.5950    2.6700   -0.9040 n         1 MOL     -0.490953
    124 C39        -6.8600    2.1520   -0.4880 c3        1 MOL      0.235645
    125 C40        -6.9510    0.6010   -0.3820 c         1 MOL      0.621676
    126 O19        -7.4140    0.0880    0.6320 o         1 MOL     -0.476497
    127 C41        -7.9810    2.6930   -1.4000 c3        1 MOL     -0.169626
    128 C42        -9.3010    2.2460   -0.8820 ca        1 MOL      0.011595
    129 C43        -9.8130    2.4070    0.4380 ca        1 MOL     -0.136530
    130 C44       -10.1200    1.5420   -1.7950 ca        1 MOL     -0.136530
    131 C45       -11.0010    1.8250    0.8790 ca        1 MOL     -0.355749
    132 C46       -11.2980    0.8480   -1.3140 ca        1 MOL     -0.355749
    133 C47       -11.7600    1.0030    0.0250 ca        1 MOL      0.473115
    134 O20       -12.9540    0.3510    0.2270 oh        1 MOL     -0.552144
    135 H56        -5.5300    3.1360   -1.7960 hn        1 MOL      0.283093
    136 H57        -7.0600    2.5350    0.5130 h1        1 MOL      0.063856
    137 H58        -7.9530    2.4900   -2.4770 hc        1 MOL      0.066060
    138 H59        -7.9850    3.7810   -1.3120 hc        1 MOL      0.066060
    139 H60        -9.2500    3.0370    1.1120 ha        1 MOL      0.126831
    140 H61        -9.9790    1.5860   -2.8610 ha        1 MOL      0.126831
    141 H62       -11.2720    1.7970    1.9320 ha        1 MOL      0.171256
    142 H63       -11.8200    0.2750   -2.0620 ha        1 MOL      0.171256
    143 H64       -13.2780   -0.1200   -0.5440 ho        1 MOL      0.368336
    144 N13        -6.3670   -0.1470   -1.3780 n         1 MOL     -0.627070
    145 C48        -6.2680   -1.6130   -1.3380 c3        1 MOL      0.099818
    146 C49        -5.5580   -2.1520   -0.0950 c         1 MOL      0.226223
    147 O21        -5.9510   -3.2170    0.3800 o         1 MOL     -0.505514
    148 C50        -5.4150   -2.0890   -2.5310 c3        1 MOL      0.326561
    149 C51        -5.6560   -3.5330   -2.9360 c3        1 MOL     -0.360895
    150 C52        -4.6790   -4.0860   -4.0060 c         1 MOL      0.742651
    151 O22        -3.4470   -4.0790   -3.8590 o         1 MOL     -0.735660
    152 O23        -5.1800   -4.6590   -5.0190 o         1 MOL     -0.735660
    153 H65        -6.1280    0.3590   -2.2150 hn        1 MOL      0.312866
    154 H66        -7.2720   -2.0020   -1.4910 h1        1 MOL      0.070718
    155 H67        -4.3690   -1.8640   -2.3150 hc        1 MOL     -0.072167
    156 H68        -5.6890   -1.5610   -3.4440 hc        1 MOL     -0.072167
    157 H69        -6.6640   -3.5560   -3.3440 hc        1 MOL      0.041205
    158 H70        -5.8060   -4.2270   -2.1110 hc        1 MOL      0.041205
    159 N14        -4.5070   -1.4380    0.3800 n         1 MOL      0.033527
    160 C53        -3.6890   -1.8700    1.5100 c3        1 MOL     -0.097132
    161 C54        -4.3710   -1.2990    2.7770 c         1 MOL      0.374544
    162 O24        -3.9920   -1.7180    3.8750 o         1 MOL     -0.578431
    163 C55        -2.2560   -1.2320    1.4550 c3        1 MOL      0.119684
    164 C56        -1.5530   -1.8430    0.2410 c3        1 MOL     -0.074646
    165 C57        -0.2640   -1.0410    0.0250 c         1 MOL      0.659849
    166 O25         0.8290   -1.5150    0.3100 o         1 MOL     -0.701952
    167 O26        -0.3370    0.0560   -0.5710 o         1 MOL     -0.701952
    168 H71        -4.1580   -0.6460   -0.1400 hn        1 MOL      0.204729
    169 H72        -3.6500   -2.9520    1.5210 h1        1 MOL      0.113606
    170 H73        -1.7560   -1.4350    2.4020 hc        1 MOL      0.057024
    171 H74        -2.4250   -0.1570    1.3110 hc        1 MOL      0.057024
    172 H75        -2.2030   -1.7330   -0.6320 hc        1 MOL     -0.002452
    173 H76        -1.4690   -2.8960    0.5040 hc        1 MOL     -0.002452
    174 N15        -5.2870   -0.3510    2.6830 n         1 MOL      0.148490
    175 C58        -5.9990    0.2140    3.7780 c3        1 MOL     -0.229887
    176 H77        -6.8630   -0.4090    4.0100 h1        1 MOL      0.072852
    177 H78        -5.3450    0.2660    4.6490 h1        1 MOL      0.072852
    178 H79        -6.3360    1.2170    3.5160 h1        1 MOL      0.072852
    179 H80        -5.3450    0.0330    1.7450 hn        1 MOL     -0.209357
    180 Ca1         2.2330    0.0790   -1.1390 Ca        1 MOL      1.714504
    181 O27         0.5010   -0.7180   -3.3640 oh        1 MOL     -0.846988
    182 H81         0.0350   -0.7470   -4.2030 ho        1 MOL      0.405093
    183 H82         1.1050   -1.4510   -3.3910 ho        1 MOL      0.405093
    184 O28         1.6120    2.3630   -2.5570 oh        1 MOL     -0.846988
    185 H83         0.8000    2.8480   -2.7040 ho        1 MOL      0.405093
    186 H84         2.0890    2.4340   -3.3970 ho        1 MOL      0.405093
@<TRIPOS>BOND
     1    1    2 1   
     2    1    4 1   
     3    1    5 1   
     4    1    6 1   
     5    2    3 2   
     6    2    7 1   
     7    7    8 1   
     8    7   15 1   
     9    8    9 1   
    10    8   11 1   
    11    8   16 1   
    12    9   10 2   
    13    9   19 1   
    14   11   12 1   
    15   11   17 1   
    16   11   18 1   
    17   12   13 1   
    18   12   14 1   
    19   19   20 1   
    20   19   27 1   
    21   20   21 1   
    22   20   23 1   
    23   20   28 1   
    24   21   22 2   
    25   21   38 1   
    26   23   24 1   
    27   23   25 1   
    28   23   29 1   
    29   24   26 1   
    30   24   30 1   
    31   24   31 1   
    32   25   32 1   
    33   25   33 1   
    34   25   34 1   
    35   26   35 1   
    36   26   36 1   
    37   26   37 1   
    38   38   39 1   
    39   38   46 1   
    40   39   40 1   
    41   39   42 1   
    42   39   47 1   
    43   40   41 2   
    44   40   50 1   
    45   42   43 1   
    46   42   48 1   
    47   42   49 1   
    48   43   44 1   
    49   43   45 1   
    50   50   51 1   
    51   50   54 1   
    52   51   52 1   
    53   51   55 1   
    54   51   56 1   
    55   52   53 2   
    56   52   57 1   
    57   57   58 1   
    58   57   65 1   
    59   58   59 1   
    60   58   61 1   
    61   58   66 1   
    62   59   60 2   
    63   59   69 1   
    64   61   62 1   
    65   61   67 1   
    66   61   68 1   
    67   62   63 1   
    68   62   64 1   
    69   69   70 1   
    70   69   73 1   
    71   70   71 1   
    72   70   74 1   
    73   70   75 1   
    74   71   72 2   
    75   71   76 1   
    76   76   77 1   
    77   76   85 1   
    78   77   78 1   
    79   77   80 1   
    80   77   86 1   
    81   78   79 2   
    82   78   93 1   
    83   80   81 1   
    84   80   87 1   
    85   80   88 1   
    86   81   82 1   
    87   81   89 1   
    88   81   90 1   
    89   82   83 1   
    90   82   84 2   
    91   83   91 1   
    92   83   92 1   
    93   93   94 1   
    94   93  100 1   
    95   94   95 1   
    96   94   97 1   
    97   94  101 1   
    98   95   96 2   
    99   95  109 1   
   100   97   98 1   
   101   97   99 1   
   102   97  102 1   
   103   98  103 1   
   104   98  104 1   
   105   98  105 1   
   106   99  106 1   
   107   99  107 1   
   108   99  108 1   
   109  109  110 1   
   110  109  117 1   
   111  110  111 1   
   112  110  113 1   
   113  110  118 1   
   114  111  112 2   
   115  111  123 1   
   116  113  114 1   
   117  113  119 1   
   118  113  120 1   
   119  114  115 1   
   120  114  116 2   
   121  115  121 1   
   122  115  122 1   
   123  123  124 1   
   124  123  135 1   
   125  124  125 1   
   126  124  127 1   
   127  124  136 1   
   128  125  126 2   
   129  125  144 1   
   130  127  128 1   
   131  127  137 1   
   132  127  138 1   
   133  128  129 ar  
   134  128  130 ar  
   135  129  131 ar  
   136  129  139 1   
   137  130  132 ar  
   138  130  140 1   
   139  131  133 ar  
   140  131  141 1   
   141  132  133 ar  
   142  132  142 1   
   143  133  134 1   
   144  134  143 1   
   145  144  145 1   
   146  144  153 1   
   147  145  146 1   
   148  145  148 1   
   149  145  154 1   
   150  146  147 2   
   151  146  159 1   
   152  148  149 1   
   153  148  155 1   
   154  148  156 1   
   155  149  150 1   
   156  149  157 1   
   157  149  158 1   
   158  150  151 1   
   159  150  152 1   
   160  159  160 1   
   161  159  168 1   
   162  160  161 1   
   163  160  163 1   
   164  160  169 1   
   165  161  162 2   
   166  161  174 1   
   167  163  164 1   
   168  163  170 1   
   169  163  171 1   
   170  164  165 1   
   171  164  172 1   
   172  164  173 1   
   173  165  166 1   
   174  165  167 1   
   175  174  175 1   
   176  174  179 1   
   177  175  176 1   
   178  175  177 1   
   179  175  178 1   
   180  181  182 1   
   181  181  183 1   
   182  184  185 1   
   183  184  186 1   
@<TRIPOS>SUBSTRUCTURE
     1 MOL         1 TEMP              0 ****  ****    0 ROOT
