@<TRIPOS>MOLECULE
MOL
  176   174     1     0     0
SMALL
resp


@<TRIPOS>ATOM
      1 C1          0.7340    3.8510    6.0060 c3        1 MOL     -0.329376
      2 C2          0.5980    3.2330    4.6250 c         1 MOL      0.678213
      3 O1          1.5410    2.6300    4.0160 o         1 MOL     -0.589390
      4 H1          1.2680    4.7980    5.9280 hc        1 MOL      0.091362
      5 H2         -0.2560    4.0250    6.4270 hc        1 MOL      0.091362
      6 H3          1.2910    3.1740    6.6540 hc        1 MOL      0.091362
      7 N1         -0.6390    3.2690    4.0870 n         1 MOL     -0.577416
      8 C3         -1.0290    2.8870    2.7590 c3        1 MOL      0.029626
      9 C4         -1.3470    4.1660    2.0220 c         1 MOL      0.612718
     10 O2         -2.1470    4.9490    2.4610 o         1 MOL     -0.572992
     11 C5         -2.2070    1.8240    2.8700 c3        1 MOL     -0.091659
     12 C6         -2.7990    1.3230    1.5750 c         1 MOL      0.949441
     13 O3         -2.5670    1.9310    0.5530 o         1 MOL     -0.911714
     14 O4         -3.2310    0.1430    1.4400 o         1 MOL     -0.911714
     15 H4         -1.3250    3.7970    4.6160 hn        1 MOL      0.323345
     16 H5         -0.2660    2.3550    2.1880 h1        1 MOL      0.092213
     17 H6         -3.0350    2.2670    3.4180 hc        1 MOL      0.020196
     18 H7         -1.9670    0.9160    3.4410 hc        1 MOL      0.020196
     19 N2         -0.6770    4.3600    0.9000 n         1 MOL     -0.407955
     20 C7         -0.8890    5.5840    0.0990 c3        1 MOL     -0.070495
     21 C8         -2.1590    5.5900   -0.7460 c         1 MOL      0.604304
     22 O5         -2.4090    6.6020   -1.3200 o         1 MOL     -0.564142
     23 C9          0.4070    5.9510   -0.6140 c3        1 MOL     -0.027754
     24 C10         0.6080    5.0690   -1.8780 c3        1 MOL     -0.068711
     25 C11         1.9350    5.4270   -2.6100 c3        1 MOL      0.075947
     26 C12         2.1580    4.4650   -3.8520 c3        1 MOL     -0.178835
     27 N3          3.4730    4.4850   -4.4830 n4        1 MOL     -0.122067
     28 H8          0.0080    3.6880    0.5610 hn        1 MOL      0.284018
     29 H9         -1.0780    6.4090    0.7910 h1        1 MOL      0.107341
     30 H10         1.2110    5.8430    0.1050 hc        1 MOL      0.043407
     31 H11         0.3910    7.0060   -0.8810 hc        1 MOL      0.043407
     32 H12        -0.1770    5.3340   -2.5820 hc        1 MOL      0.064414
     33 H13         0.7420    4.0030   -1.7030 hc        1 MOL      0.064414
     34 H14         2.7860    5.2090   -1.9680 hc        1 MOL      0.012475
     35 H15         1.9890    6.4720   -2.9230 hc        1 MOL      0.012475
     36 H16         1.5080    4.8980   -4.6040 hx        1 MOL      0.121460
     37 H17         2.0210    3.4250   -3.5590 hx        1 MOL      0.121460
     38 H18         4.2340    4.2530   -3.8680 hn        1 MOL      0.271337
     39 H19         3.5190    3.8750   -5.2810 hn        1 MOL      0.271337
     40 H20         3.7920    5.3320   -4.9310 hn        1 MOL      0.271337
     41 N4         -2.8690    4.4650   -0.9140 n         1 MOL     -0.576863
     42 C13        -3.9120    4.2630   -1.8810 c3        1 MOL      0.156564
     43 C14        -5.1010    3.5290   -1.2270 c         1 MOL      0.354609
     44 O6         -6.1970    3.4740   -1.8340 o         1 MOL     -0.552283
     45 C15        -3.4350    3.5010   -3.0830 c3        1 MOL     -0.231465
     46 C16        -2.8960    2.1330   -2.6550 c         1 MOL      0.799175
     47 O7         -3.6150    1.1750   -2.3040 o         1 MOL     -0.774768
     48 O8         -1.6720    1.9400   -2.6470 o         1 MOL     -0.774768
     49 H21        -2.4810    3.6840   -0.4020 hn        1 MOL      0.414340
     50 H22        -4.3480    5.1860   -2.2440 h1        1 MOL      0.103658
     51 H23        -2.6410    4.0240   -3.6110 hc        1 MOL      0.057063
     52 H24        -4.1210    3.4890   -3.9260 hc        1 MOL      0.057063
     53 N5         -4.9450    2.9680   -0.0440 n         1 MOL     -0.033696
     54 C17        -6.0210    2.6080    0.8480 c3        1 MOL     -0.333866
     55 C18        -6.6800    1.2240    0.5820 c         1 MOL      0.665288
     56 O9         -7.4680    0.7320    1.4130 o         1 MOL     -0.634020
     57 H25        -4.0460    3.0080    0.4170 hn        1 MOL      0.136772
     58 H26        -6.8220    3.3470    0.8240 h1        1 MOL      0.133400
     59 H27        -5.5190    2.4780    1.8040 h1        1 MOL      0.133400
     60 N6         -6.1890    0.4850   -0.3910 n         1 MOL     -0.510224
     61 C19        -6.7360   -0.8490   -0.7320 c3        1 MOL      0.285379
     62 C20        -6.7210   -2.0000    0.3570 c         1 MOL      0.331084
     63 O10        -7.2180   -3.0700    0.0970 o         1 MOL     -0.509141
     64 C21        -6.2870   -1.2850   -2.1170 c3        1 MOL     -0.446144
     65 C22        -5.0750   -2.1970   -2.0120 c         1 MOL      0.803699
     66 N7         -5.1760   -3.3570   -2.5570 n         1 MOL     -0.775738
     67 O11        -4.0420   -1.8260   -1.3750 o         1 MOL     -0.665408
     68 H28        -5.6070    0.9730   -1.0520 hn        1 MOL      0.298597
     69 H29        -7.8100   -0.6940   -0.8150 h1        1 MOL      0.060204
     70 H30        -5.9770   -0.4250   -2.7100 hc        1 MOL      0.125334
     71 H31        -7.1030   -1.8150   -2.6120 hc        1 MOL      0.125334
     72 H32        -6.0210   -3.6030   -3.0690 hn        1 MOL      0.370062
     73 H33        -4.3410   -3.9100   -2.5170 hn        1 MOL      0.370062
     74 N8         -6.1790   -1.7010    1.5350 n         1 MOL     -0.162538
     75 C23        -5.9730   -2.6390    2.6480 c3        1 MOL     -0.198341
     76 C24        -4.6580   -3.3870    2.7200 c         1 MOL      0.504617
     77 O12        -4.5390   -4.3340    3.5040 o         1 MOL     -0.563633
     78 H34        -5.8940   -0.7500    1.6780 hn        1 MOL      0.293507
     79 H35        -6.7220   -3.4230    2.6770 h1        1 MOL      0.117959
     80 H36        -6.0410   -2.1480    3.6290 h1        1 MOL      0.117959
     81 N9         -3.7110   -3.1490    1.7960 n         1 MOL     -0.151886
     82 C25        -2.3770   -3.7720    1.8120 c3        1 MOL      0.028609
     83 C26        -1.1420   -2.9130    1.4620 c         1 MOL      0.480241
     84 O13        -1.2760   -2.0770    0.6540 o         1 MOL     -0.495062
     85 C27        -2.3440   -5.1140    1.1070 c3        1 MOL     -0.134102
     86 C28        -2.3850   -5.0940   -0.4250 ca        1 MOL      0.050252
     87 C29        -1.3310   -4.6600   -1.2890 ca        1 MOL     -0.162433
     88 C30        -3.4930   -5.7560   -1.0190 ca        1 MOL     -0.162433
     89 C31        -1.3990   -4.7660   -2.7130 ca        1 MOL     -0.222601
     90 C32        -3.5520   -5.9150   -2.4150 ca        1 MOL     -0.222601
     91 C33        -2.5500   -5.3750   -3.2870 ca        1 MOL      0.286673
     92 O14        -2.6420   -5.5160   -4.6410 oh        1 MOL     -0.507579
     93 H37        -3.8250   -2.3860    1.1380 hn        1 MOL      0.132163
     94 H38        -2.1910   -4.0280    2.8560 h1        1 MOL      0.049548
     95 H39        -3.1630   -5.6880    1.5330 hc        1 MOL      0.078086
     96 H40        -1.4390   -5.5920    1.4730 hc        1 MOL      0.078086
     97 H41        -0.4820   -4.2090   -0.8010 ha        1 MOL      0.152597
     98 H42        -4.3450   -5.9420   -0.3810 ha        1 MOL      0.152597
     99 H43        -0.5520   -4.3740   -3.2500 ha        1 MOL      0.138980
    100 H44        -4.4180   -6.3570   -2.8810 ha        1 MOL      0.138980
    101 H45        -2.0860   -4.8850   -5.1080 ho        1 MOL      0.377438
    102 N10         0.1090   -3.1770    1.9260 n         1 MOL     -0.475159
    103 C34         1.4660   -2.5500    1.6630 c3        1 MOL     -0.224090
    104 C35         2.3990   -3.6420    1.1430 c         1 MOL      0.610810
    105 O15         2.5070   -4.7460    1.6820 o         1 MOL     -0.497353
    106 C36         1.9410   -1.6260    2.8430 c3        1 MOL      0.297348
    107 C37         2.3790   -2.4920    4.0610 c3        1 MOL     -0.185895
    108 C38         0.8420   -0.5720    3.1920 c3        1 MOL     -0.099006
    109 C39         3.0590   -1.5130    5.0960 c3        1 MOL     -0.021157
    110 H46         0.1580   -3.8620    2.6700 hn        1 MOL      0.292811
    111 H47         1.3790   -1.8730    0.8170 h1        1 MOL      0.171345
    112 H48         2.8340   -1.1010    2.4860 hc        1 MOL     -0.123120
    113 H49         3.0580   -3.2630    3.6820 hc        1 MOL      0.060146
    114 H50         1.5580   -2.9840    4.5840 hc        1 MOL      0.060146
    115 H51         1.2840    0.1540    3.8810 hc        1 MOL      0.053965
    116 H52         0.5930   -0.0310    2.2840 hc        1 MOL      0.053965
    117 H53         0.0450   -1.0730    3.7470 hc        1 MOL      0.053965
    118 H54         2.2700   -1.1010    5.7240 hc        1 MOL      0.010751
    119 H55         3.6920   -2.0790    5.7770 hc        1 MOL      0.010751
    120 H56         3.6910   -0.6870    4.7690 hc        1 MOL      0.010751
    121 N11         3.2020   -3.1840    0.0730 n         1 MOL     -0.542541
    122 C40         4.5020   -3.6210   -0.4290 c3        1 MOL      0.221715
    123 C41         5.7970   -2.7980    0.0380 c         1 MOL      0.461181
    124 O16         5.5700   -1.7820    0.7060 o         1 MOL     -0.409900
    125 C42         4.5100   -3.6710   -1.9210 c3        1 MOL     -0.067537
    126 O17         4.4510   -2.3130   -2.4220 oh        1 MOL     -0.555158
    127 H57         3.0050   -2.2410   -0.2610 hn        1 MOL      0.282043
    128 H58         4.8300   -4.5950   -0.0640 h1        1 MOL      0.022729
    129 H59         3.7260   -4.3270   -2.3120 h1        1 MOL      0.077724
    130 H60         5.4690   -4.0740   -2.2510 h1        1 MOL      0.077724
    131 H61         3.8470   -2.2870   -3.1690 ho        1 MOL      0.396829
    132 N12         7.0140   -3.2760   -0.2670 n         1 MOL     -0.467380
    133 C43         8.2700   -2.6440   -0.0070 c3        1 MOL      0.202791
    134 C44         8.3430   -1.1580   -0.4960 c         1 MOL      0.442608
    135 O18         8.8120   -0.3150    0.2510 o         1 MOL     -0.502486
    136 C45         9.4630   -3.4600   -0.5700 c3        1 MOL     -0.302691
    137 H62         7.0760   -4.1570   -0.7620 hn        1 MOL      0.287408
    138 H63         8.4840   -2.5360    1.0500 h1        1 MOL      0.055664
    139 H64         9.6400   -3.1870   -1.6010 hc        1 MOL      0.094357
    140 H65        10.3640   -3.1620   -0.0350 hc        1 MOL      0.094357
    141 H66         9.3050   -4.5290   -0.4040 hc        1 MOL      0.094357
    142 N13         7.7500   -0.7480   -1.6560 n         1 MOL     -0.308600
    143 C46         7.6110    0.6290   -2.2470 c3        1 MOL      0.050102
    144 C47         6.6750    1.5240   -1.3750 c         1 MOL      0.400252
    145 O19         7.0610    2.7040   -1.1620 o         1 MOL     -0.529119
    146 C48         7.1340    0.4530   -3.7270 c3        1 MOL     -0.314534
    147 H67         7.3660   -1.4750   -2.2420 hn        1 MOL      0.196426
    148 H68         8.6280    1.0260   -2.2660 h1        1 MOL      0.104859
    149 H69         7.4060    1.3420   -4.2950 hc        1 MOL      0.088506
    150 H70         7.7040   -0.3390   -4.2100 hc        1 MOL      0.088506
    151 H71         6.0480    0.4360   -3.7760 hc        1 MOL      0.088506
    152 N14         5.5270    1.0170   -0.9220 n         1 MOL     -0.188143
    153 C49         4.6600    1.7430    0.0260 c3        1 MOL     -0.166574
    154 C50         5.3140    1.9650    1.4180 c         1 MOL      0.549773
    155 O20         5.1480    3.0070    1.9450 o         1 MOL     -0.517077
    156 C51         3.3830    0.9470    0.0530 c3        1 MOL     -0.082877
    157 C52         2.5030    1.1950   -1.1520 c3        1 MOL     -0.105495
    158 C53         1.0520    0.6880   -0.8980 c         1 MOL      0.778792
    159 O21         0.5830   -0.3280   -1.5270 o         1 MOL     -0.815087
    160 O22         0.3380    1.2650   -0.0240 o         1 MOL     -0.815087
    161 H72         5.3850    0.0560   -1.1850 hn        1 MOL      0.202403
    162 H73         4.5140    2.7240   -0.4160 h1        1 MOL      0.105926
    163 H74         2.8460    1.3320    0.9280 hc        1 MOL      0.116014
    164 H75         3.5670   -0.1210    0.1080 hc        1 MOL      0.116014
    165 H76         2.9570    0.8640   -2.0860 hc        1 MOL     -0.009280
    166 H77         2.5350    2.2450   -1.4550 hc        1 MOL     -0.009280
    167 N15         5.9980    0.9050    1.8700 n         1 MOL     -0.147246
    168 C54         6.7500    0.8890    3.1440 c3        1 MOL     -0.210941
    169 H78         7.1070    1.8940    3.3670 h1        1 MOL      0.095202
    170 H79         6.0970    0.5500    3.9480 h1        1 MOL      0.095202
    171 H80         7.6000    0.2120    3.0560 h1        1 MOL      0.095202
    172 H81         6.0780    0.0460    1.3520 hn        1 MOL      0.138634
    173 Ca1        -1.9700   -0.0940   -0.8360 Ca        1 MOL      1.802160
    174 O23        -1.6820   -1.3950   -3.1510 oh        1 MOL     -0.832961
    175 H82        -1.9180   -0.9280   -3.9530 ho        1 MOL      0.406159
    176 H83        -0.7230   -1.5020   -3.2070 ho        1 MOL      0.406159
@<TRIPOS>BOND
     1    1    2 1   
     2    1    4 1   
     3    1    5 1   
     4    1    6 1   
     5    2    3 2   
     6    2    7 1   
     7    7    8 1   
     8    7   15 1   
     9    8    9 1   
    10    8   11 1   
    11    8   16 1   
    12    9   10 2   
    13    9   19 1   
    14   11   12 1   
    15   11   17 1   
    16   11   18 1   
    17   12   13 1   
    18   12   14 1   
    19   19   20 1   
    20   19   28 1   
    21   20   21 1   
    22   20   23 1   
    23   20   29 1   
    24   21   22 2   
    25   21   41 1   
    26   23   24 1   
    27   23   30 1   
    28   23   31 1   
    29   24   25 1   
    30   24   32 1   
    31   24   33 1   
    32   25   26 1   
    33   25   34 1   
    34   25   35 1   
    35   26   27 1   
    36   26   36 1   
    37   26   37 1   
    38   27   38 1   
    39   27   39 1   
    40   27   40 1   
    41   41   42 1   
    42   41   49 1   
    43   42   43 1   
    44   42   45 1   
    45   42   50 1   
    46   43   44 2   
    47   43   53 1   
    48   45   46 1   
    49   45   51 1   
    50   45   52 1   
    51   46   47 1   
    52   46   48 1   
    53   53   54 1   
    54   53   57 1   
    55   54   55 1   
    56   54   58 1   
    57   54   59 1   
    58   55   56 2   
    59   55   60 1   
    60   60   61 1   
    61   60   68 1   
    62   61   62 1   
    63   61   64 1   
    64   61   69 1   
    65   62   63 2   
    66   62   74 1   
    67   64   65 1   
    68   64   70 1   
    69   64   71 1   
    70   65   66 1   
    71   65   67 2   
    72   66   72 1   
    73   66   73 1   
    74   74   75 1   
    75   74   78 1   
    76   75   76 1   
    77   75   79 1   
    78   75   80 1   
    79   76   77 2   
    80   76   81 1   
    81   81   82 1   
    82   81   93 1   
    83   82   83 1   
    84   82   85 1   
    85   82   94 1   
    86   83   84 2   
    87   83  102 1   
    88   85   86 1   
    89   85   95 1   
    90   85   96 1   
    91   86   87 ar  
    92   86   88 ar  
    93   87   89 ar  
    94   87   97 1   
    95   88   90 ar  
    96   88   98 1   
    97   89   91 ar  
    98   89   99 1   
    99   90   91 ar  
   100   90  100 1   
   101   91   92 1   
   102   92  101 1   
   103  102  103 1   
   104  102  110 1   
   105  103  104 1   
   106  103  106 1   
   107  103  111 1   
   108  104  105 2   
   109  104  121 1   
   110  106  107 1   
   111  106  108 1   
   112  106  112 1   
   113  107  109 1   
   114  107  113 1   
   115  107  114 1   
   116  108  115 1   
   117  108  116 1   
   118  108  117 1   
   119  109  118 1   
   120  109  119 1   
   121  109  120 1   
   122  121  122 1   
   123  121  127 1   
   124  122  123 1   
   125  122  125 1   
   126  122  128 1   
   127  123  124 2   
   128  123  132 1   
   129  125  126 1   
   130  125  129 1   
   131  125  130 1   
   132  126  131 1   
   133  132  133 1   
   134  132  137 1   
   135  133  134 1   
   136  133  136 1   
   137  133  138 1   
   138  134  135 2   
   139  134  142 1   
   140  136  139 1   
   141  136  140 1   
   142  136  141 1   
   143  142  143 1   
   144  142  147 1   
   145  143  144 1   
   146  143  146 1   
   147  143  148 1   
   148  144  145 2   
   149  144  152 1   
   150  146  149 1   
   151  146  150 1   
   152  146  151 1   
   153  152  153 1   
   154  152  161 1   
   155  153  154 1   
   156  153  156 1   
   157  153  162 1   
   158  154  155 2   
   159  154  167 1   
   160  156  157 1   
   161  156  163 1   
   162  156  164 1   
   163  157  158 1   
   164  157  165 1   
   165  157  166 1   
   166  158  159 1   
   167  158  160 1   
   168  167  168 1   
   169  167  172 1   
   170  168  169 1   
   171  168  170 1   
   172  168  171 1   
   173  174  175 1   
   174  174  176 1   
@<TRIPOS>SUBSTRUCTURE
     1 MOL         1 TEMP              0 ****  ****    0 ROOT
