@<TRIPOS>MOLECULE
MOL
  189   185     1     0     0
SMALL
resp


@<TRIPOS>ATOM
      1 C1          0.6970    2.9970   -5.6000 c3        1 MOL     -0.209008
      2 C2          0.8130    2.4060   -4.1820 c         1 MOL      0.734908
      3 O1         -0.1010    2.6890   -3.4170 o         1 MOL     -0.613418
      4 H1         -0.2520    3.5240   -5.6960 hc        1 MOL      0.046599
      5 H2          1.5170    3.6930   -5.7730 hc        1 MOL      0.046599
      6 H3          0.7420    2.1920   -6.3340 hc        1 MOL      0.046599
      7 N1          1.9600    1.8020   -3.7830 n         1 MOL     -0.681867
      8 C3          2.2790    1.4530   -2.4350 c3        1 MOL      0.027309
      9 C4          2.7840    2.7780   -1.7600 c         1 MOL      0.570465
     10 O2          3.8680    3.2780   -2.1530 o         1 MOL     -0.602496
     11 C5          3.4470    0.4830   -2.6120 c3        1 MOL     -0.221732
     12 C6          3.9930    0.0080   -1.2690 c         1 MOL      0.788112
     13 O3          4.9570   -0.8000   -1.3590 o         1 MOL     -0.670786
     14 O4          3.4860    0.3290   -0.1700 o         1 MOL     -0.670786
     15 H4          2.6690    1.5830   -4.4730 hn        1 MOL      0.356846
     16 H5          1.3970    1.0580   -1.9470 h1        1 MOL      0.052757
     17 H6          4.2980    0.8050   -3.2210 hc        1 MOL      0.060671
     18 H7          2.9490   -0.4000   -3.0220 hc        1 MOL      0.060671
     19 N2          2.1330    3.3720   -0.7960 n         1 MOL     -0.202115
     20 C7          2.5500    4.7130   -0.1880 c3        1 MOL     -0.023942
     21 C8          3.4890    4.6710    0.9770 c         1 MOL      0.612085
     22 O5          3.9840    5.6950    1.4070 o         1 MOL     -0.583542
     23 C9          1.4320    5.7830   -0.1230 c3        1 MOL     -0.008497
     24 C10         0.6130    5.8230   -1.4270 c3        1 MOL      0.247414
     25 C11         1.3190    6.2090   -2.6990 c3        1 MOL     -0.156056
     26 C12         1.7750    7.6260   -2.5910 c3        1 MOL      0.182569
     27 N3          2.4770    8.0840   -3.8270 n4        1 MOL     -0.393711
     28 H8          1.2720    2.9740   -0.4510 hn        1 MOL      0.276131
     29 H9          3.2230    5.1910   -0.9050 h1        1 MOL      0.024896
     30 H10         1.7970    6.7710    0.1400 hc        1 MOL     -0.007267
     31 H11         0.7570    5.4160    0.6460 hc        1 MOL     -0.007267
     32 H12        -0.1800    6.5540   -1.3210 hc        1 MOL     -0.049390
     33 H13         0.0680    4.8950   -1.5830 hc        1 MOL     -0.049390
     34 H14         0.6100    6.1360   -3.5200 hc        1 MOL      0.044117
     35 H15         2.1140    5.4990   -2.9160 hc        1 MOL      0.044117
     36 H16         2.4200    7.7130   -1.7130 hx        1 MOL      0.044222
     37 H17         1.0210    8.3870   -2.4080 hx        1 MOL      0.044222
     38 H18         1.8140    8.1930   -4.5850 hn        1 MOL      0.325388
     39 H19         2.9130    8.9890   -3.7790 hn        1 MOL      0.325388
     40 H20         3.2080    7.4780   -4.1730 hn        1 MOL      0.325388
     41 N4          3.8570    3.5130    1.5520 n         1 MOL     -0.434464
     42 C13         4.5750    3.4020    2.7910 c3        1 MOL      0.026362
     43 C14         5.8310    2.4320    2.7340 c         1 MOL      0.388065
     44 O6          6.5690    2.1830    3.6820 o         1 MOL     -0.500278
     45 C15         3.6320    3.0590    3.9500 c3        1 MOL     -0.239665
     46 C16         2.6950    1.8870    3.6820 c         1 MOL      0.874119
     47 O7          1.8470    1.6070    4.5910 o         1 MOL     -0.749764
     48 O8          2.7260    1.3310    2.5900 o         1 MOL     -0.749764
     49 H21         3.2910    2.6950    1.3460 hn        1 MOL      0.240409
     50 H22         5.0270    4.3860    2.8890 h1        1 MOL      0.095784
     51 H23         3.0600    3.9480    4.1850 hc        1 MOL      0.059494
     52 H24         4.1220    2.7510    4.8710 hc        1 MOL      0.059494
     53 N5          6.0040    1.8950    1.5510 n         1 MOL     -0.101003
     54 C17         7.0820    1.0850    1.0130 c3        1 MOL     -0.320018
     55 C18         7.3270   -0.2420    1.6380 c         1 MOL      0.561266
     56 O9          8.3920   -0.5520    2.1330 o         1 MOL     -0.574513
     57 H25         5.1870    2.0380    0.9680 hn        1 MOL      0.121711
     58 H26         7.9760    1.6710    1.2590 h1        1 MOL      0.117841
     59 H27         6.9230    0.9630   -0.0650 h1        1 MOL      0.117841
     60 N6          6.2930   -1.0400    1.6810 n         1 MOL     -0.160717
     61 C19         6.3060   -2.4130    2.0890 c3        1 MOL     -0.089207
     62 C20         6.3370   -3.4590    0.9440 c         1 MOL      0.407998
     63 O10         6.4390   -4.6720    1.2110 o         1 MOL     -0.521657
     64 C21         5.2460   -2.6340    3.1530 c3        1 MOL     -0.052370
     65 C22         3.8800   -2.1980    2.6030 c         1 MOL      0.484568
     66 O11         3.1650   -1.5460    3.4180 o         1 MOL     -0.633377
     67 O12         3.5400   -2.4340    1.3750 o         1 MOL     -0.633377
     68 H28         5.4040   -0.6670    1.3800 hn        1 MOL      0.219954
     69 H29         7.2370   -2.7170    2.5590 h1        1 MOL      0.108904
     70 H30         5.5660   -2.1300    4.0560 hc        1 MOL      0.045738
     71 H31         5.2570   -3.6990    3.3850 hc        1 MOL      0.045738
     72 N7          6.2740   -3.0300   -0.3310 n         1 MOL     -0.288043
     73 C23         6.0840   -3.8450   -1.5220 c3        1 MOL     -0.043392
     74 C24         4.6540   -4.3850   -1.8880 c         1 MOL      0.510745
     75 O13         4.6790   -5.3910   -2.5590 o         1 MOL     -0.584334
     76 H32         6.2050   -2.0480   -0.5410 hn        1 MOL      0.217874
     77 H33         6.8500   -4.6150   -1.4360 h1        1 MOL      0.059142
     78 H34         6.3170   -3.2020   -2.3740 h1        1 MOL      0.059142
     79 N8          3.6100   -3.8450   -1.3250 n         1 MOL     -0.055762
     80 C25         2.2890   -4.3990   -1.3880 c3        1 MOL     -0.233726
     81 C26         1.2030   -3.3210   -1.3670 c         1 MOL      0.418624
     82 O14         1.4160   -2.1840   -0.8660 o         1 MOL     -0.555859
     83 C27         2.0210   -5.3870   -0.2350 c3        1 MOL      0.599306
     84 C28         2.4030   -6.8190   -0.5030 c3        1 MOL     -0.504448
     85 O15         2.6420   -5.0680    0.9520 oh        1 MOL     -0.713893
     86 H35         3.7490   -3.0390   -0.7310 hn        1 MOL      0.064692
     87 H36         2.1910   -4.8420   -2.3720 h1        1 MOL      0.080253
     88 H37         0.9450   -5.3820   -0.1040 h1        1 MOL     -0.073723
     89 H38         2.9270   -4.1560    1.0080 ho        1 MOL      0.518187
     90 H39         2.3910   -7.2960    0.4820 hc        1 MOL      0.124282
     91 H40         1.7770   -7.4300   -1.1390 hc        1 MOL      0.124282
     92 H41         3.4290   -6.8750   -0.8750 hc        1 MOL      0.124282
     93 N9          0.0470   -3.6150   -1.9640 n         1 MOL     -0.217217
     94 C29        -1.0720   -2.7590   -2.2640 c3        1 MOL      0.036183
     95 C30        -2.1520   -3.2220   -1.4080 c         1 MOL      0.303087
     96 O16        -2.7210   -4.3340   -1.6380 o         1 MOL     -0.539389
     97 C31        -1.3670   -2.8180   -3.7890 c3        1 MOL      0.069072
     98 C32        -0.2460   -2.4910   -4.7030 c3        1 MOL     -0.147520
     99 C33        -2.5960   -1.8580   -4.0950 c3        1 MOL     -0.144889
    100 C34         0.6990   -1.2760   -4.4080 c3        1 MOL      0.084162
    101 H42        -0.0540   -4.5750   -2.2610 hn        1 MOL      0.232243
    102 H43        -0.8470   -1.7030   -2.1120 h1        1 MOL      0.095541
    103 H44        -1.5770   -3.8450   -4.0640 hc        1 MOL      0.022327
    104 H45        -0.6410   -2.2180   -5.6760 hc        1 MOL      0.034462
    105 H46         0.4160   -3.3560   -4.7790 hc        1 MOL      0.034462
    106 H47        -3.3390   -1.9400   -3.3090 hc        1 MOL      0.034227
    107 H48        -2.2380   -0.8320   -4.0320 hc        1 MOL      0.034227
    108 H49        -3.0990   -2.1880   -5.0030 hc        1 MOL      0.034227
    109 H50         1.3070   -1.3970   -3.5090 hc        1 MOL     -0.008662
    110 H51         1.3880   -1.3100   -5.2500 hc        1 MOL     -0.008662
    111 H52         0.1220   -0.3500   -4.4670 hc        1 MOL     -0.008662
    112 N10        -2.4620   -2.4710   -0.3790 n         1 MOL     -0.158238
    113 C35        -3.6920   -2.6500    0.4570 c3        1 MOL     -0.023878
    114 C36        -5.0000   -2.2100   -0.1800 c         1 MOL      0.190032
    115 O17        -4.9690   -1.4540   -1.1340 o         1 MOL     -0.204195
    116 C37        -3.6210   -1.8420    1.7830 c3        1 MOL      0.160655
    117 C38        -2.4520   -2.1150    2.6520 c3        1 MOL     -0.319959
    118 O18        -3.7940   -0.4570    1.4700 oh        1 MOL     -0.409411
    119 H53        -1.9040   -1.6350   -0.2620 hn        1 MOL      0.244027
    120 H54        -3.7300   -3.6830    0.7990 h1        1 MOL      0.091007
    121 H55        -4.4560   -2.1860    2.3950 h1        1 MOL     -0.002662
    122 H56        -3.2900   -0.0390    2.1750 ho        1 MOL      0.364233
    123 H57        -1.5520   -1.6340    2.2600 hc        1 MOL      0.101572
    124 H58        -2.6110   -1.6580    3.6210 hc        1 MOL      0.101572
    125 H59        -2.4550   -3.1900    2.8200 hc        1 MOL      0.101572
    126 N11        -6.1280   -2.5770    0.4680 n         1 MOL     -0.058655
    127 C39        -7.4130   -2.0830   -0.0190 c3        1 MOL     -0.379899
    128 C40        -7.4960   -0.5180   -0.0430 c         1 MOL      0.490026
    129 O19        -8.1820    0.0490   -0.9170 o         1 MOL     -0.511786
    130 C41        -8.6300   -2.5640    0.7140 c3        1 MOL      0.261645
    131 C42        -8.8930   -4.0520    0.6180 c3        1 MOL     -0.438983
    132 O20        -8.3700   -2.3520    2.0580 oh        1 MOL     -0.633323
    133 H60        -6.0680   -3.3640    1.0900 hn        1 MOL      0.225753
    134 H61        -7.4370   -2.4360   -1.0530 h1        1 MOL      0.197258
    135 H62        -9.5510   -1.9970    0.5320 h1        1 MOL      0.096489
    136 H63        -8.9660   -3.0250    2.3990 ho        1 MOL      0.404297
    137 H64        -8.9350   -4.3660   -0.4250 hc        1 MOL      0.128655
    138 H65        -8.2010   -4.7060    1.1320 hc        1 MOL      0.128655
    139 H66        -9.8680   -4.2270    1.0900 hc        1 MOL      0.128655
    140 N12        -6.8710    0.1900    0.8780 n         1 MOL     -0.222899
    141 C43        -6.7250    1.6610    0.9510 c3        1 MOL     -0.130354
    142 C44        -5.8710    2.1910   -0.2280 c         1 MOL      0.356093
    143 O21        -6.2860    3.1920   -0.7340 o         1 MOL     -0.527299
    144 C45        -6.0160    2.0810    2.2290 c3        1 MOL      0.092016
    145 C46        -6.9440    1.9500    3.4520 c3        1 MOL      0.109617
    146 C47        -6.4020    2.3530    4.7720 c3        1 MOL     -0.024249
    147 C48        -7.4750    2.2780    5.8850 c3        1 MOL      0.196275
    148 N13        -6.9160    2.4340    7.3030 n4        1 MOL     -0.501845
    149 H67        -6.1950   -0.3630    1.3780 hn        1 MOL      0.181516
    150 H68        -7.7050    2.1080    0.8510 h1        1 MOL      0.153978
    151 H69        -5.6410    3.1060    2.1820 hc        1 MOL     -0.011938
    152 H70        -5.1360    1.4950    2.4890 hc        1 MOL     -0.011938
    153 H71        -7.1870    0.8810    3.5080 hc        1 MOL     -0.036992
    154 H72        -7.8400    2.4810    3.1230 hc        1 MOL     -0.036992
    155 H73        -6.0800    3.3940    4.7430 hc        1 MOL      0.010669
    156 H74        -5.5290    1.7140    4.9430 hc        1 MOL      0.010669
    157 H75        -8.1140    1.4000    5.7570 hx        1 MOL      0.042298
    158 H76        -8.1850    3.0910    5.7620 hx        1 MOL      0.042298
    159 H77        -6.3540    3.2740    7.2980 hn        1 MOL      0.363191
    160 H78        -7.6970    2.7000    7.8780 hn        1 MOL      0.363191
    161 H79        -6.4360    1.6010    7.6080 hn        1 MOL      0.363191
    162 N14        -4.8530    1.5480   -0.6300 n         1 MOL      0.081039
    163 C49        -4.0500    1.8690   -1.7900 c3        1 MOL     -0.309477
    164 C50        -4.6610    1.4650   -3.1450 c         1 MOL      0.548583
    165 O22        -4.4800    2.0210   -4.1770 o         1 MOL     -0.549789
    166 C51        -2.6100    1.2310   -1.5870 c3        1 MOL      0.081400
    167 C52        -1.8410    1.8320   -0.3950 c3        1 MOL     -0.032780
    168 C53        -0.7060    0.9880    0.1790 c         1 MOL      0.655706
    169 O23         0.3270    1.5760    0.6130 o         1 MOL     -0.769235
    170 O24        -0.7360   -0.2700    0.1570 o         1 MOL     -0.769235
    171 H80        -4.5590    0.7960   -0.0220 hn        1 MOL      0.051674
    172 H81        -3.8840    2.9480   -1.8830 h1        1 MOL      0.114733
    173 H82        -1.9780    1.2980   -2.4750 hc        1 MOL      0.076311
    174 H83        -2.7420    0.1590   -1.4960 hc        1 MOL      0.076311
    175 H84        -2.5800    2.0740    0.3660 hc        1 MOL     -0.010776
    176 H85        -1.3520    2.7550   -0.7090 hc        1 MOL     -0.010776
    177 N15        -5.4730    0.4040   -3.1170 n         1 MOL     -0.127636
    178 C54        -6.0420   -0.3100   -4.2650 c3        1 MOL     -0.278140
    179 H86        -6.3040    0.4050   -5.0440 h1        1 MOL      0.103864
    180 H87        -5.3080   -1.0160   -4.6540 h1        1 MOL      0.103864
    181 H88        -6.9360   -0.8490   -3.9520 h1        1 MOL      0.103864
    182 H89        -5.6310   -0.1720   -2.2970 hn        1 MOL      0.069140
    183 Ca1         1.5780   -0.6060    1.2980 Ca        1 MOL      1.752590
    184 O25         0.5740   -3.1050    2.0950 oh        1 MOL     -0.885357
    185 H90         1.1230   -3.8700    2.2690 ho        1 MOL      0.403926
    186 H91         0.2000   -2.8860    2.9520 ho        1 MOL      0.403926
    187 O26         0.1590   -0.2530    3.5720 oh        1 MOL     -0.885357
    188 H92        -0.4870   -0.2320    4.2740 ho        1 MOL      0.403926
    189 H93         0.8030    0.3990    3.8180 ho        1 MOL      0.403926
@<TRIPOS>BOND
     1    1    2 1   
     2    1    4 1   
     3    1    5 1   
     4    1    6 1   
     5    2    3 2   
     6    2    7 1   
     7    7    8 1   
     8    7   15 1   
     9    8    9 1   
    10    8   11 1   
    11    8   16 1   
    12    9   10 2   
    13    9   19 1   
    14   11   12 1   
    15   11   17 1   
    16   11   18 1   
    17   12   13 1   
    18   12   14 1   
    19   19   20 1   
    20   19   28 1   
    21   20   21 1   
    22   20   23 1   
    23   20   29 1   
    24   21   22 2   
    25   21   41 1   
    26   23   24 1   
    27   23   30 1   
    28   23   31 1   
    29   24   25 1   
    30   24   32 1   
    31   24   33 1   
    32   25   26 1   
    33   25   34 1   
    34   25   35 1   
    35   26   27 1   
    36   26   36 1   
    37   26   37 1   
    38   27   38 1   
    39   27   39 1   
    40   27   40 1   
    41   41   42 1   
    42   41   49 1   
    43   42   43 1   
    44   42   45 1   
    45   42   50 1   
    46   43   44 2   
    47   43   53 1   
    48   45   46 1   
    49   45   51 1   
    50   45   52 1   
    51   46   47 1   
    52   46   48 1   
    53   53   54 1   
    54   53   57 1   
    55   54   55 1   
    56   54   58 1   
    57   54   59 1   
    58   55   56 2   
    59   55   60 1   
    60   60   61 1   
    61   60   68 1   
    62   61   62 1   
    63   61   64 1   
    64   61   69 1   
    65   62   63 2   
    66   62   72 1   
    67   64   65 1   
    68   64   70 1   
    69   64   71 1   
    70   65   66 1   
    71   65   67 1   
    72   72   73 1   
    73   72   76 1   
    74   73   74 1   
    75   73   77 1   
    76   73   78 1   
    77   74   75 2   
    78   74   79 1   
    79   79   80 1   
    80   79   86 1   
    81   80   81 1   
    82   80   83 1   
    83   80   87 1   
    84   81   82 2   
    85   81   93 1   
    86   83   84 1   
    87   83   85 1   
    88   83   88 1   
    89   84   90 1   
    90   84   91 1   
    91   84   92 1   
    92   85   89 1   
    93   93   94 1   
    94   93  101 1   
    95   94   95 1   
    96   94   97 1   
    97   94  102 1   
    98   95   96 2   
    99   95  112 1   
   100   97   98 1   
   101   97   99 1   
   102   97  103 1   
   103   98  100 1   
   104   98  104 1   
   105   98  105 1   
   106   99  106 1   
   107   99  107 1   
   108   99  108 1   
   109  100  109 1   
   110  100  110 1   
   111  100  111 1   
   112  112  113 1   
   113  112  119 1   
   114  113  114 1   
   115  113  116 1   
   116  113  120 1   
   117  114  115 2   
   118  114  126 1   
   119  116  117 1   
   120  116  118 1   
   121  116  121 1   
   122  117  123 1   
   123  117  124 1   
   124  117  125 1   
   125  118  122 1   
   126  126  127 1   
   127  126  133 1   
   128  127  128 1   
   129  127  130 1   
   130  127  134 1   
   131  128  129 2   
   132  128  140 1   
   133  130  131 1   
   134  130  132 1   
   135  130  135 1   
   136  131  137 1   
   137  131  138 1   
   138  131  139 1   
   139  132  136 1   
   140  140  141 1   
   141  140  149 1   
   142  141  142 1   
   143  141  144 1   
   144  141  150 1   
   145  142  143 2   
   146  142  162 1   
   147  144  145 1   
   148  144  151 1   
   149  144  152 1   
   150  145  146 1   
   151  145  153 1   
   152  145  154 1   
   153  146  147 1   
   154  146  155 1   
   155  146  156 1   
   156  147  148 1   
   157  147  157 1   
   158  147  158 1   
   159  148  159 1   
   160  148  160 1   
   161  148  161 1   
   162  162  163 1   
   163  162  171 1   
   164  163  164 1   
   165  163  166 1   
   166  163  172 1   
   167  164  165 2   
   168  164  177 1   
   169  166  167 1   
   170  166  173 1   
   171  166  174 1   
   172  167  168 1   
   173  167  175 1   
   174  167  176 1   
   175  168  169 1   
   176  168  170 1   
   177  177  178 1   
   178  177  182 1   
   179  178  179 1   
   180  178  180 1   
   181  178  181 1   
   182  184  185 1   
   183  184  186 1   
   184  187  188 1   
   185  187  189 1   
@<TRIPOS>SUBSTRUCTURE
     1 MOL         1 TEMP              0 ****  ****    0 ROOT
