@<TRIPOS>MOLECULE
MOL
  189   185     1     0     0
SMALL
resp


@<TRIPOS>ATOM
      1 C1          0.8070   -4.8290    5.7800 c3        1 MOL     -0.365404
      2 C2          1.1730   -4.0070    4.5420 c         1 MOL      0.699079
      3 O1          1.0180   -2.7680    4.5480 o         1 MOL     -0.582918
      4 H1         -0.2730   -4.8010    5.9280 hc        1 MOL      0.093911
      5 H2          1.1270   -5.8620    5.6380 hc        1 MOL      0.093911
      6 H3          1.3050   -4.4120    6.6540 hc        1 MOL      0.093911
      7 N1          1.6710   -4.6990    3.4840 n         1 MOL     -0.538284
      8 C3          2.1680   -4.1500    2.2130 c3        1 MOL      0.218726
      9 C4          2.0560   -5.2170    1.1140 c         1 MOL      0.493968
     10 O2          2.2630   -6.4270    1.3580 o         1 MOL     -0.586663
     11 C5          3.5710   -3.6710    2.5070 c3        1 MOL     -0.249696
     12 C6          4.1880   -2.8200    1.3980 c         1 MOL      0.746232
     13 O3          5.4260   -2.5000    1.6500 o         1 MOL     -0.699718
     14 O4          3.5490   -2.3570    0.4230 o         1 MOL     -0.699718
     15 H4          1.5840   -5.7080    3.5120 hn        1 MOL      0.279502
     16 H5          1.5990   -3.2620    1.9020 h1        1 MOL      0.004503
     17 H6          4.2190   -4.5310    2.6480 hc        1 MOL      0.062933
     18 H7          3.6410   -3.1420    3.4590 hc        1 MOL      0.062933
     19 N2          1.8140   -4.6700   -0.0380 n         1 MOL     -0.524785
     20 C7          1.8840   -5.4720   -1.3230 c3        1 MOL      0.231614
     21 C8          3.2200   -5.1320   -1.9940 c         1 MOL      0.419045
     22 O5          3.7540   -6.1290   -2.6040 o         1 MOL     -0.593379
     23 C9          0.6750   -5.2540   -2.1530 c3        1 MOL      0.166162
     24 C10        -0.7010   -5.1870   -1.3670 c3        1 MOL     -0.019268
     25 C11         0.7210   -6.3370   -3.1820 c3        1 MOL     -0.242826
     26 C12        -2.0020   -5.1090   -2.1260 c3        1 MOL     -0.027116
     27 H8          1.6570   -3.6800    0.0300 hn        1 MOL      0.335445
     28 H9          1.9100   -6.5250   -1.0300 h1        1 MOL      0.017273
     29 H10         0.9560   -4.3590   -2.6950 hc        1 MOL      0.023034
     30 H11        -0.6780   -4.2750   -0.7750 hc        1 MOL     -0.001086
     31 H12        -0.7250   -6.0470   -0.6920 hc        1 MOL     -0.001086
     32 H13         1.6430   -6.2330   -3.7550 hc        1 MOL      0.036084
     33 H14         0.6980   -7.3400   -2.7610 hc        1 MOL      0.036084
     34 H15        -0.0900   -6.2390   -3.9050 hc        1 MOL      0.036084
     35 H16        -2.8480   -5.0630   -1.4370 hc        1 MOL      0.001113
     36 H17        -2.0410   -4.3070   -2.8550 hc        1 MOL      0.001113
     37 H18        -2.2060   -6.0550   -2.6290 hc        1 MOL      0.001113
     38 N3          3.5890   -3.8670   -2.0410 n         1 MOL     -0.131725
     39 C13         4.4230   -3.3920   -3.1160 c3        1 MOL     -0.116198
     40 C14         5.7280   -2.7330   -2.6330 c         1 MOL      0.404923
     41 O6          6.6820   -2.5880   -3.4650 o         1 MOL     -0.528717
     42 C15         3.5740   -2.5210   -4.0550 c3        1 MOL     -0.016644
     43 C16         2.5850   -1.4620   -3.5110 c         1 MOL      0.640730
     44 O7          2.5050   -1.3110   -2.2910 o         1 MOL     -0.682282
     45 O8          1.9430   -0.8390   -4.3770 o         1 MOL     -0.682282
     46 H19         3.0750   -3.2190   -1.4600 hn        1 MOL      0.154634
     47 H20         4.8180   -4.2550   -3.6540 h1        1 MOL      0.097304
     48 H21         2.9460   -3.1250   -4.7230 hc        1 MOL      0.009873
     49 H22         4.2500   -2.0660   -4.7780 hc        1 MOL      0.009873
     50 N4          5.8670   -2.3400   -1.3830 n         1 MOL     -0.198501
     51 C17         7.0750   -1.6810   -0.8320 c3        1 MOL      0.049696
     52 C18         7.5140   -0.3170   -1.4480 c         1 MOL      0.310029
     53 O9          8.5580   -0.1270   -2.0530 o         1 MOL     -0.547091
     54 H23         5.0390   -2.4430   -0.8170 hn        1 MOL      0.111340
     55 H24         7.9830   -2.2880   -0.8460 h1        1 MOL      0.046586
     56 H25         6.9480   -1.4550    0.2320 h1        1 MOL      0.046586
     57 N5          6.5730    0.6530   -1.4310 n         1 MOL     -0.032494
     58 C19         6.7770    2.0420   -1.8970 c3        1 MOL      0.033553
     59 C20         7.0010    2.9580   -0.7140 c         1 MOL      0.273052
     60 O10         7.1560    4.2090   -0.9120 o         1 MOL     -0.512685
     61 C21         5.5320    2.5770   -2.6590 c3        1 MOL     -0.416043
     62 C22         4.0860    2.2010   -2.2230 c         1 MOL      0.840728
     63 O11         3.9720    1.4210   -1.2700 o         1 MOL     -0.671481
     64 O12         3.1630    2.6230   -2.9020 o         1 MOL     -0.671481
     65 H26         5.6930    0.4450   -0.9870 hn        1 MOL      0.088203
     66 H27         7.5890    2.1650   -2.6190 h1        1 MOL      0.121159
     67 H28         5.6330    2.0770   -3.6190 hc        1 MOL      0.103120
     68 H29         5.5880    3.6650   -2.8040 hc        1 MOL      0.103120
     69 N6          7.0170    2.4320    0.4780 n         1 MOL     -0.169066
     70 C23         7.0640    3.2410    1.6410 c3        1 MOL     -0.223696
     71 C24         5.6690    3.9780    1.9850 c         1 MOL      0.451996
     72 O13         5.5820    4.8930    2.7790 o         1 MOL     -0.542475
     73 H30         7.0540    1.4340    0.6400 hn        1 MOL      0.221112
     74 H31         7.8310    3.9920    1.4720 h1        1 MOL      0.111683
     75 H32         7.3410    2.6180    2.4890 h1        1 MOL      0.111683
     76 N7          4.6220    3.5690    1.2710 n         1 MOL     -0.339187
     77 C25         3.2730    4.1170    1.3940 c3        1 MOL      0.197225
     78 C26         2.1660    3.0800    1.6070 c         1 MOL      0.138675
     79 O14         2.3800    1.8700    1.5140 o         1 MOL     -0.461417
     80 C27         3.0340    4.9050    0.1270 c3        1 MOL     -0.132498
     81 C28         3.8860    6.1450   -0.0820 c3        1 MOL     -0.059266
     82 C29         3.1620    7.2100   -0.8350 c         1 MOL      0.587091
     83 N8          2.9070    7.0160   -2.0890 n         1 MOL     -0.732531
     84 O15         2.6920    8.2130   -0.3270 o         1 MOL     -0.601228
     85 H33         4.7510    2.8160    0.6130 hn        1 MOL      0.363595
     86 H34         3.2200    4.7720    2.2670 h1        1 MOL      0.040752
     87 H35         1.9980    5.2220    0.2180 hc        1 MOL      0.057748
     88 H36         3.1850    4.2360   -0.7150 hc        1 MOL      0.057748
     89 H37         4.7530    5.9990   -0.7170 hc        1 MOL      0.041570
     90 H38         4.1330    6.5780    0.8860 hc        1 MOL      0.041570
     91 H39         3.2380    6.2160   -2.6000 hn        1 MOL      0.346236
     92 H40         2.3570    7.7820   -2.4560 hn        1 MOL      0.346236
     93 N9          1.0060    3.5130    2.1310 n         1 MOL     -0.099535
     94 C30        -0.2380    2.7400    2.4180 c3        1 MOL     -0.016503
     95 C31        -1.2860    3.1830    1.3980 c         1 MOL      0.279916
     96 O16        -1.4820    4.3970    1.2170 o         1 MOL     -0.531106
     97 C32        -0.6840    2.7380    3.9160 c3        1 MOL      0.299366
     98 C33         0.5060    2.4460    4.8510 c3        1 MOL     -0.294784
     99 C34        -1.4190    4.0200    4.3340 c3        1 MOL     -0.294784
    100 H41         0.9250    4.4950    2.3300 hn        1 MOL      0.206105
    101 H42        -0.0400    1.6820    2.2330 h1        1 MOL      0.136122
    102 H43        -1.3410    1.8860    4.0820 hc        1 MOL     -0.036537
    103 H44         1.2370    3.2180    4.6110 hc        1 MOL      0.058957
    104 H45         0.3590    2.4540    5.9360 hc        1 MOL      0.058957
    105 H46         0.9630    1.5170    4.5010 hc        1 MOL      0.058957
    106 H47        -1.8480    3.9670    5.3270 hc        1 MOL      0.058957
    107 H48        -0.7270    4.8540    4.3380 hc        1 MOL      0.058957
    108 H49        -2.2390    4.3170    3.6730 hc        1 MOL      0.058957
    109 N10        -1.8610    2.2060    0.6990 n         1 MOL     -0.062574
    110 C35        -3.0170    2.4600   -0.1400 c3        1 MOL      0.045570
    111 C36        -4.2650    2.2410    0.7980 c         1 MOL      0.360767
    112 O17        -4.0850    1.6180    1.8590 o         1 MOL     -0.455234
    113 C37        -2.8390    1.4270   -1.2860 c3        1 MOL     -0.233475
    114 C38        -4.0000    1.4070   -2.2490 c         1 MOL      0.636479
    115 N11        -4.0830    2.4520   -3.0220 n         1 MOL     -0.730689
    116 O18        -4.7570    0.4690   -2.3030 o         1 MOL     -0.568554
    117 H50        -1.4260    1.3210    0.4980 hn        1 MOL      0.162863
    118 H51        -2.9540    3.4820   -0.5100 h1        1 MOL      0.027716
    119 H52        -2.7450    0.4680   -0.7690 hc        1 MOL      0.102536
    120 H53        -1.9630    1.7400   -1.8520 hc        1 MOL      0.102536
    121 H54        -3.3040    3.0960   -3.1170 hn        1 MOL      0.341265
    122 H55        -4.9300    2.5980   -3.5440 hn        1 MOL      0.341265
    123 N12        -5.4630    2.5120    0.2710 n         1 MOL     -0.098889
    124 C39        -6.7070    2.0890    0.8540 c3        1 MOL     -0.021988
    125 C40        -6.8530    0.5870    0.8970 c         1 MOL      0.510102
    126 O19        -7.3690    0.0790    1.9050 o         1 MOL     -0.572533
    127 C41        -7.8070    2.8150    0.0940 c3        1 MOL     -0.354516
    128 C42        -7.7140    2.8820   -1.4250 ca        1 MOL     -0.085224
    129 C43        -7.0150    3.8540   -2.1360 ca        1 MOL      0.000042
    130 C44        -8.2940    1.8650   -2.2480 ca        1 MOL      0.000042
    131 C45        -6.8760    3.8220   -3.5270 ca        1 MOL     -0.375485
    132 C46        -8.1440    1.7950   -3.5780 ca        1 MOL     -0.375485
    133 C47        -7.3710    2.7490   -4.2860 ca        1 MOL      0.473677
    134 O20        -6.9900    2.6740   -5.5610 oh        1 MOL     -0.599576
    135 H56        -5.4910    2.8700   -0.6720 hn        1 MOL      0.004773
    136 H57        -6.7270    2.5430    1.8470 h1        1 MOL      0.099722
    137 H58        -7.6050    3.8400    0.3850 hc        1 MOL      0.138746
    138 H59        -8.7080    2.3460    0.4940 hc        1 MOL      0.138746
    139 H60        -6.6880    4.7970   -1.7260 ha        1 MOL      0.101400
    140 H61        -8.8840    1.1100   -1.7590 ha        1 MOL      0.101400
    141 H62        -6.4110    4.6880   -3.9700 ha        1 MOL      0.151414
    142 H63        -8.7150    1.0300   -4.0860 ha        1 MOL      0.151414
    143 H64        -7.1910    1.8460   -6.0080 ho        1 MOL      0.448904
    144 N13        -6.4300   -0.2230   -0.0760 n         1 MOL     -0.448565
    145 C48        -6.4460   -1.6790    0.0650 c3        1 MOL     -0.120219
    146 C49        -5.6150   -2.1620    1.3250 c         1 MOL      0.472802
    147 O21        -5.9590   -3.1850    1.7890 o         1 MOL     -0.516563
    148 C50        -6.0430   -2.4320   -1.1710 c3        1 MOL     -0.228293
    149 C51        -6.9650   -2.0780   -2.4140 c3        1 MOL      0.015521
    150 C52        -8.4260   -2.4710   -2.2070 c         1 MOL      0.693859
    151 O22        -9.2650   -1.8500   -2.8680 o         1 MOL     -0.722404
    152 O23        -8.6650   -3.3870   -1.4360 o         1 MOL     -0.722404
    153 H65        -6.1600    0.1320   -0.9820 hn        1 MOL      0.717314
    154 H66        -7.5010   -1.8200    0.3040 h1        1 MOL      0.147750
    155 H67        -6.2560   -3.4540   -0.8570 hc        1 MOL      0.097302
    156 H68        -4.9690   -2.3140   -1.3170 hc        1 MOL      0.097302
    157 H69        -6.6510   -2.6210   -3.3080 hc        1 MOL     -0.063876
    158 H70        -6.8830   -1.0030   -2.5300 hc        1 MOL     -0.063876
    159 N14        -4.5200   -1.4900    1.6980 n         1 MOL      0.037016
    160 C53        -3.5840   -1.8860    2.6970 c3        1 MOL     -0.317693
    161 C54        -4.0110   -1.3250    4.0440 c         1 MOL      0.534545
    162 O24        -3.8270   -1.9490    5.0800 o         1 MOL     -0.590836
    163 C55        -2.1410   -1.5000    2.3750 c3        1 MOL      0.279142
    164 C56        -1.6880   -2.2470    1.1340 c3        1 MOL     -0.034820
    165 C57        -0.4590   -1.5400    0.5240 c         1 MOL      0.917476
    166 O25         0.3830   -2.2420   -0.0650 o         1 MOL     -0.817353
    167 O26        -0.3360   -0.2850    0.3990 o         1 MOL     -0.817353
    168 H71        -4.3450   -0.6260    1.2160 hn        1 MOL     -0.105090
    169 H72        -3.6340   -2.9760    2.7560 h1        1 MOL      0.112190
    170 H73        -1.5020   -1.7450    3.2310 hc        1 MOL     -0.055688
    171 H74        -2.1640   -0.4200    2.1860 hc        1 MOL     -0.055688
    172 H75        -2.4500   -2.3720    0.3610 hc        1 MOL     -0.010679
    173 H76        -1.3600   -3.2320    1.4640 hc        1 MOL     -0.010679
    174 N15        -4.6340   -0.1580    4.0630 n         1 MOL     -0.091602
    175 C58        -5.1440    0.5090    5.2730 c3        1 MOL     -0.235315
    176 H77        -6.2180    0.3460    5.3500 h1        1 MOL      0.085085
    177 H78        -4.6500    0.0960    6.1510 h1        1 MOL      0.085085
    178 H79        -4.9420    1.5790    5.2110 h1        1 MOL      0.085085
    179 H80        -4.8860    0.2750    3.1850 hn        1 MOL      0.142519
    180 Ca1         2.2960   -0.1860    0.0390 Ca        1 MOL      1.766738
    181 O27         1.6320   -0.8180    2.7070 oh        1 MOL     -0.904134
    182 H81         1.2320   -1.4770    3.2800 ho        1 MOL      0.405539
    183 H82         2.4610   -0.6020    3.1340 ho        1 MOL      0.405539
    184 O28         4.8390    0.0880    1.4710 oh        1 MOL     -0.904134
    185 H83         4.9060    0.3880    2.3760 ho        1 MOL      0.405539
    186 H84         5.1850   -0.8070    1.4880 ho        1 MOL      0.405539
    187 O29         1.1220    1.4900   -1.7010 oh        1 MOL     -0.904134
    188 H85         1.8890    1.6780   -2.2370 ho        1 MOL      0.405539
    189 H86         0.3780    1.7850   -2.2390 ho        1 MOL      0.405539
@<TRIPOS>BOND
     1    1    2 1   
     2    1    4 1   
     3    1    5 1   
     4    1    6 1   
     5    2    3 2   
     6    2    7 1   
     7    7    8 1   
     8    7   15 1   
     9    8    9 1   
    10    8   11 1   
    11    8   16 1   
    12    9   10 2   
    13    9   19 1   
    14   11   12 1   
    15   11   17 1   
    16   11   18 1   
    17   12   13 1   
    18   12   14 1   
    19   19   20 1   
    20   19   27 1   
    21   20   21 1   
    22   20   23 1   
    23   20   28 1   
    24   21   22 2   
    25   21   38 1   
    26   23   24 1   
    27   23   25 1   
    28   23   29 1   
    29   24   26 1   
    30   24   30 1   
    31   24   31 1   
    32   25   32 1   
    33   25   33 1   
    34   25   34 1   
    35   26   35 1   
    36   26   36 1   
    37   26   37 1   
    38   38   39 1   
    39   38   46 1   
    40   39   40 1   
    41   39   42 1   
    42   39   47 1   
    43   40   41 2   
    44   40   50 1   
    45   42   43 1   
    46   42   48 1   
    47   42   49 1   
    48   43   44 1   
    49   43   45 1   
    50   50   51 1   
    51   50   54 1   
    52   51   52 1   
    53   51   55 1   
    54   51   56 1   
    55   52   53 2   
    56   52   57 1   
    57   57   58 1   
    58   57   65 1   
    59   58   59 1   
    60   58   61 1   
    61   58   66 1   
    62   59   60 2   
    63   59   69 1   
    64   61   62 1   
    65   61   67 1   
    66   61   68 1   
    67   62   63 1   
    68   62   64 1   
    69   69   70 1   
    70   69   73 1   
    71   70   71 1   
    72   70   74 1   
    73   70   75 1   
    74   71   72 2   
    75   71   76 1   
    76   76   77 1   
    77   76   85 1   
    78   77   78 1   
    79   77   80 1   
    80   77   86 1   
    81   78   79 2   
    82   78   93 1   
    83   80   81 1   
    84   80   87 1   
    85   80   88 1   
    86   81   82 1   
    87   81   89 1   
    88   81   90 1   
    89   82   83 1   
    90   82   84 2   
    91   83   91 1   
    92   83   92 1   
    93   93   94 1   
    94   93  100 1   
    95   94   95 1   
    96   94   97 1   
    97   94  101 1   
    98   95   96 2   
    99   95  109 1   
   100   97   98 1   
   101   97   99 1   
   102   97  102 1   
   103   98  103 1   
   104   98  104 1   
   105   98  105 1   
   106   99  106 1   
   107   99  107 1   
   108   99  108 1   
   109  109  110 1   
   110  109  117 1   
   111  110  111 1   
   112  110  113 1   
   113  110  118 1   
   114  111  112 2   
   115  111  123 1   
   116  113  114 1   
   117  113  119 1   
   118  113  120 1   
   119  114  115 1   
   120  114  116 2   
   121  115  121 1   
   122  115  122 1   
   123  123  124 1   
   124  123  135 1   
   125  124  125 1   
   126  124  127 1   
   127  124  136 1   
   128  125  126 2   
   129  125  144 1   
   130  127  128 1   
   131  127  137 1   
   132  127  138 1   
   133  128  129 ar  
   134  128  130 ar  
   135  129  131 ar  
   136  129  139 1   
   137  130  132 ar  
   138  130  140 1   
   139  131  133 ar  
   140  131  141 1   
   141  132  133 ar  
   142  132  142 1   
   143  133  134 1   
   144  134  143 1   
   145  144  145 1   
   146  144  153 1   
   147  145  146 1   
   148  145  148 1   
   149  145  154 1   
   150  146  147 2   
   151  146  159 1   
   152  148  149 1   
   153  148  155 1   
   154  148  156 1   
   155  149  150 1   
   156  149  157 1   
   157  149  158 1   
   158  150  151 1   
   159  150  152 1   
   160  159  160 1   
   161  159  168 1   
   162  160  161 1   
   163  160  163 1   
   164  160  169 1   
   165  161  162 2   
   166  161  174 1   
   167  163  164 1   
   168  163  170 1   
   169  163  171 1   
   170  164  165 1   
   171  164  172 1   
   172  164  173 1   
   173  165  166 1   
   174  165  167 1   
   175  174  175 1   
   176  174  179 1   
   177  175  176 1   
   178  175  177 1   
   179  175  178 1   
   180  181  182 1   
   181  181  183 1   
   182  184  185 1   
   183  184  186 1   
   184  187  188 1   
   185  187  189 1   
@<TRIPOS>SUBSTRUCTURE
     1 MOL         1 TEMP              0 ****  ****    0 ROOT
