@<TRIPOS>MOLECULE
MOL
  179   176     1     0     0
SMALL
resp


@<TRIPOS>ATOM
      1 C1          2.4610    2.9460    4.4570 c3        1 MOL     -0.361311
      2 C2          1.7110    2.7560    3.1270 c         1 MOL      0.747493
      3 O1          2.3570    2.7170    2.0980 o         1 MOL     -0.623647
      4 H1          3.5080    2.6730    4.3260 hc        1 MOL      0.091489
      5 H2          2.3940    3.9890    4.7670 hc        1 MOL      0.091489
      6 H3          2.0140    2.3100    5.2220 hc        1 MOL      0.091489
      7 N1          0.3570    2.7190    3.1240 n         1 MOL     -0.700588
      8 C3         -0.6430    2.6200    2.0280 c3        1 MOL      0.218073
      9 C4         -1.0250    4.0330    1.5610 c         1 MOL      0.525414
     10 O2         -2.1370    4.5130    1.7640 o         1 MOL     -0.501997
     11 C5         -1.8460    1.6850    2.4220 c3        1 MOL     -0.131664
     12 C6         -2.7210    1.4370    1.1760 c         1 MOL      0.505964
     13 O3         -3.9040    1.1540    1.4020 o         1 MOL     -0.593380
     14 O4         -2.2420    1.6070    0.0270 o         1 MOL     -0.593380
     15 H4         -0.1940    2.7550    3.9800 hn        1 MOL      0.322223
     16 H5         -0.0870    2.1850    1.1970 h1        1 MOL      0.047384
     17 H6         -2.3640    2.1120    3.2850 hc        1 MOL      0.044355
     18 H7         -1.4070    0.7700    2.8250 hc        1 MOL      0.044355
     19 N2         -0.0950    4.8360    1.0850 n         1 MOL     -0.547944
     20 C7         -0.2850    6.1280    0.4580 c3        1 MOL      0.187905
     21 C8         -1.2210    6.0340   -0.7570 c         1 MOL      0.420729
     22 O5         -1.9420    6.9940   -0.9020 o         1 MOL     -0.561841
     23 C9          1.0400    6.8340    0.1050 c3        1 MOL     -0.319797
     24 C10         2.0090    6.9400    1.2740 c3        1 MOL      0.128962
     25 C11         3.1720    7.8880    0.8130 c3        1 MOL      0.013424
     26 C12         4.1400    8.1420    2.0340 c3        1 MOL     -0.124968
     27 N3          4.8840    6.9140    2.3940 n4        1 MOL     -0.328211
     28 H8          0.7930    4.4100    0.8580 hn        1 MOL      0.354978
     29 H9         -0.7870    6.7530    1.2000 h1        1 MOL      0.071158
     30 H10         0.8330    7.8400   -0.2560 hc        1 MOL      0.099574
     31 H11         1.4440    6.2230   -0.6890 hc        1 MOL      0.099574
     32 H12         2.3770    5.9610    1.5930 hc        1 MOL     -0.006636
     33 H13         1.6660    7.3080    2.2380 hc        1 MOL     -0.006636
     34 H14         2.8460    8.8730    0.4700 hc        1 MOL      0.044695
     35 H15         3.7180    7.4660   -0.0330 hc        1 MOL      0.044695
     36 H16         3.4440    8.4380    2.8240 hx        1 MOL      0.124466
     37 H17         4.8370    8.9440    1.7710 hx        1 MOL      0.124466
     38 H18         4.3370    6.2390    2.9100 hn        1 MOL      0.329937
     39 H19         5.3280    6.4930    1.5920 hn        1 MOL      0.329937
     40 H20         5.7180    7.1280    2.9350 hn        1 MOL      0.329937
     41 N4         -1.2830    4.9550   -1.4900 n         1 MOL     -0.226841
     42 C13        -2.2090    4.7350   -2.6780 c3        1 MOL      0.004257
     43 C14        -3.6950    4.3790   -2.3700 c         1 MOL      0.335594
     44 O6         -4.5220    4.3150   -3.2860 o         1 MOL     -0.515925
     45 C15        -1.5590    3.7530   -3.7150 c3        1 MOL     -0.309296
     46 C16        -1.1910    2.4240   -3.0350 c         1 MOL      0.923953
     47 O7         -0.1110    2.2060   -2.4770 o         1 MOL     -0.779076
     48 O8         -2.1150    1.5440   -3.1100 o         1 MOL     -0.779076
     49 H21        -0.6240    4.2420   -1.2340 hn        1 MOL      0.151383
     50 H22        -2.2750    5.6740   -3.2250 h1        1 MOL      0.119470
     51 H23        -0.6640    4.2000   -4.1330 hc        1 MOL      0.074758
     52 H24        -2.2760    3.5100   -4.4980 hc        1 MOL      0.074758
     53 N5         -3.9940    4.1610   -1.1420 n         1 MOL     -0.015901
     54 C17        -5.3350    4.1540   -0.5570 c3        1 MOL     -0.132852
     55 C18        -6.1060    2.9580   -0.9670 c         1 MOL      0.522457
     56 O9         -7.3220    3.0390   -0.9810 o         1 MOL     -0.537565
     57 H25        -3.2950    4.0970   -0.4170 hn        1 MOL      0.138195
     58 H26        -5.8300    5.0830   -0.8440 h1        1 MOL      0.090563
     59 H27        -5.1900    4.2000    0.5210 h1        1 MOL      0.090563
     60 N6         -5.4060    1.7660   -1.2250 n         1 MOL     -0.267329
     61 C19        -6.0890    0.5720   -1.6740 c3        1 MOL     -0.055874
     62 C20        -6.5920   -0.4020   -0.5620 c         1 MOL      0.484917
     63 O10        -7.3890   -1.3200   -0.8410 o         1 MOL     -0.586183
     64 C21        -5.2590   -0.1390   -2.7330 c3        1 MOL     -0.100053
     65 C22        -4.1960   -1.1590   -2.2990 c         1 MOL      0.485836
     66 N7         -4.0490   -2.2310   -3.0450 n         1 MOL     -0.731044
     67 O11        -3.5070   -0.9530   -1.3150 o         1 MOL     -0.475785
     68 H28        -4.4110    1.7520   -1.0760 hn        1 MOL      0.195115
     69 H29        -7.0220    0.9250   -2.1290 h1        1 MOL      0.113495
     70 H30        -4.7470    0.6150   -3.3240 hc        1 MOL      0.069495
     71 H31        -5.9940   -0.6590   -3.3610 hc        1 MOL      0.069495
     72 H32        -4.5940   -2.3140   -3.8860 hn        1 MOL      0.349287
     73 H33        -3.3730   -2.9790   -2.9350 hn        1 MOL      0.349287
     74 N8         -6.0720   -0.2230    0.6340 n         1 MOL     -0.247823
     75 C23        -6.4120   -1.1180    1.7930 c3        1 MOL     -0.218487
     76 C24        -5.2830   -2.0210    2.2130 c         1 MOL      0.520080
     77 O12        -5.5230   -2.8210    3.1320 o         1 MOL     -0.548800
     78 H34        -5.2120    0.3020    0.6730 hn        1 MOL      0.168372
     79 H35        -7.3680   -1.6070    1.6510 h1        1 MOL      0.138494
     80 H36        -6.5680   -0.4200    2.6210 h1        1 MOL      0.138494
     81 N9         -4.1710   -1.9140    1.5580 n         1 MOL     -0.402873
     82 C25        -3.2040   -2.9790    1.5260 c3        1 MOL      0.405271
     83 C26        -1.7830   -2.3950    1.3610 c         1 MOL      0.323015
     84 O13        -1.6660   -1.3150    0.8070 o         1 MOL     -0.594031
     85 C27        -3.4380   -4.1600    0.5490 c3        1 MOL      0.061022
     86 C28        -4.7680   -4.9040    0.6090 ca        1 MOL     -0.109436
     87 C29        -5.0270   -5.9180    1.6060 ca        1 MOL     -0.125767
     88 C30        -5.8050   -4.3320   -0.1760 ca        1 MOL     -0.125767
     89 C31        -6.3230   -6.4750    1.6890 ca        1 MOL     -0.219851
     90 C32        -7.0680   -4.8240    0.0090 ca        1 MOL     -0.219851
     91 C33        -7.3560   -5.8960    0.8990 ca        1 MOL      0.314256
     92 O14        -8.6620   -6.2700    1.1270 oh        1 MOL     -0.516434
     93 H37        -4.0780   -1.1730    0.8750 hn        1 MOL      0.334003
     94 H38        -3.2250   -3.3470    2.5570 h1        1 MOL     -0.039483
     95 H39        -2.6360   -4.8870    0.7280 hc        1 MOL     -0.037145
     96 H40        -3.3800   -3.7680   -0.4680 hc        1 MOL     -0.037145
     97 H41        -4.2590   -6.3730    2.2210 ha        1 MOL      0.138307
     98 H42        -5.6460   -3.5060   -0.8540 ha        1 MOL      0.138307
     99 H43        -6.6410   -7.1960    2.4240 ha        1 MOL      0.144732
    100 H44        -7.8590   -4.4230   -0.6010 ha        1 MOL      0.144732
    101 H45        -9.2200   -5.5230    0.8900 ho        1 MOL      0.383581
    102 N10        -0.7170   -3.0200    1.8330 n         1 MOL     -0.362521
    103 C34         0.7040   -2.6960    1.7270 c3        1 MOL      0.091096
    104 C35         1.4250   -3.7890    0.9460 c         1 MOL      0.234225
    105 O15         1.2810   -4.9350    1.3450 o         1 MOL     -0.515291
    106 C36         1.3630   -2.5470    3.0600 c3        1 MOL      0.340534
    107 C37         0.7100   -1.4670    3.9420 c3        1 MOL     -0.032463
    108 C38         2.8870   -2.2860    2.9700 c3        1 MOL     -0.229210
    109 C39         0.8770   -1.4800    5.4840 c3        1 MOL     -0.292831
    110 H46        -0.9210   -3.8120    2.4240 hn        1 MOL      0.250320
    111 H47         0.8790   -1.7860    1.1560 h1        1 MOL     -0.015273
    112 H48         1.1850   -3.4740    3.6050 hc        1 MOL     -0.043968
    113 H49        -0.3510   -1.5620    3.7550 hc        1 MOL      0.044182
    114 H50         1.0480   -0.5090    3.5360 hc        1 MOL      0.044182
    115 H51         3.2450   -2.2730    4.0050 hc        1 MOL      0.026065
    116 H52         3.4430   -3.1030    2.5180 hc        1 MOL      0.026065
    117 H53         3.1510   -1.4130    2.3710 hc        1 MOL      0.026065
    118 H54         0.1880   -0.7730    5.9410 hc        1 MOL      0.074507
    119 H55         0.6140   -2.4420    5.9280 hc        1 MOL      0.074507
    120 H56         1.8980   -1.1960    5.7310 hc        1 MOL      0.074507
    121 N11         2.3110   -3.3840    0.0240 n         1 MOL      0.055508
    122 C40         3.2410   -4.2060   -0.7870 c3        1 MOL     -0.252409
    123 C41         4.7270   -3.9760   -0.3840 c         1 MOL      0.576234
    124 O16         4.9960   -3.0500    0.3820 o         1 MOL     -0.444024
    125 C42         2.9650   -3.9910   -2.2700 c3        1 MOL     -0.043915
    126 O17         3.0500   -2.6950   -2.7610 oh        1 MOL     -0.576728
    127 H57         2.2080   -2.4190   -0.2720 hn        1 MOL      0.250411
    128 H58         2.9950   -5.2350   -0.5300 h1        1 MOL      0.103365
    129 H59         1.9460   -4.3160   -2.4480 h1        1 MOL      0.080375
    130 H60         3.5180   -4.5890   -2.9970 h1        1 MOL      0.080375
    131 H61         2.4600   -2.0920   -2.3060 ho        1 MOL      0.388914
    132 N12         5.6480   -4.7650   -0.9440 n         1 MOL     -0.488627
    133 C43         7.1040   -4.7020   -0.7120 c3        1 MOL      0.142846
    134 C44         7.6710   -3.2370   -0.9780 c         1 MOL      0.418557
    135 O18         8.3090   -2.5910   -0.0990 o         1 MOL     -0.503047
    136 C45         7.7230   -5.7940   -1.5490 c3        1 MOL     -0.154449
    137 H62         5.2830   -5.6590   -1.2230 hn        1 MOL      0.285097
    138 H63         7.2700   -4.9980    0.3230 h1        1 MOL      0.075192
    139 H64         8.7690   -5.8400   -1.2250 hc        1 MOL      0.054439
    140 H65         7.3490   -6.8030   -1.4300 hc        1 MOL      0.054439
    141 H66         7.6860   -5.5750   -2.6180 hc        1 MOL      0.054439
    142 N13         7.4120   -2.6270   -2.1480 n         1 MOL     -0.380530
    143 C46         7.8960   -1.3230   -2.6160 c3        1 MOL      0.151078
    144 C47         7.3600   -0.1550   -1.7070 c         1 MOL      0.280483
    145 O19         8.1430    0.7910   -1.3890 o         1 MOL     -0.489750
    146 C48         7.6400   -1.2410   -4.1490 c3        1 MOL     -0.385973
    147 H67         6.7860   -3.2060   -2.6890 hn        1 MOL      0.264180
    148 H68         8.9850   -1.2470   -2.5620 h1        1 MOL      0.096585
    149 H69         8.1840   -2.0120   -4.6930 hc        1 MOL      0.113324
    150 H70         6.5760   -1.3010   -4.3720 hc        1 MOL      0.113324
    151 H71         8.1000   -0.3090   -4.4710 hc        1 MOL      0.113324
    152 N14         6.1410   -0.2690   -1.2420 n         1 MOL     -0.064815
    153 C49         5.5560    0.6290   -0.1620 c3        1 MOL     -0.348981
    154 C50         6.2470    0.5590    1.1820 c         1 MOL      0.468361
    155 O20         6.4580    1.6010    1.8750 o         1 MOL     -0.566941
    156 C51         4.1470    0.2280   -0.0050 c3        1 MOL      0.172554
    157 C52         3.4010    0.3370   -1.2590 c3        1 MOL     -0.155882
    158 C53         1.9620   -0.0880   -1.0270 c         1 MOL      0.818956
    159 O21         1.5890   -1.1550   -1.4790 o         1 MOL     -0.763290
    160 O22         1.0900    0.5900   -0.3170 o         1 MOL     -0.763290
    161 H72         5.5640   -0.9270   -1.7510 hn        1 MOL      0.206077
    162 H73         5.6990    1.6320   -0.5490 h1        1 MOL      0.174562
    163 H74         3.6480    0.8690    0.7220 hc        1 MOL      0.032556
    164 H75         4.0210   -0.7310    0.4990 hc        1 MOL      0.032556
    165 H76         3.7760   -0.3620   -2.0010 hc        1 MOL      0.011302
    166 H77         3.3830    1.3750   -1.6040 hc        1 MOL      0.011302
    167 N15         6.7420   -0.6640    1.5460 n         1 MOL      0.029282
    168 C54         7.4750   -0.8400    2.8190 c3        1 MOL     -0.405598
    169 H78         8.5440   -0.9030    2.6170 h1        1 MOL      0.141697
    170 H79         7.2790    0.0090    3.4720 h1        1 MOL      0.141697
    171 H80         7.1430   -1.7570    3.3060 h1        1 MOL      0.141697
    172 H81         6.4790   -1.4110    0.9180 hn        1 MOL      0.076909
    173 Ca1        -1.0310   -0.1840   -1.4840 Ca        1 MOL      1.739712
    174 O23        -0.8490   -2.7940   -2.1550 oh        1 MOL     -0.862795
    175 H82        -1.3000   -3.5280   -1.7280 ho        1 MOL      0.418854
    176 H83        -0.2460   -3.2140   -2.7750 ho        1 MOL      0.418854
    177 O24        -0.4350   -0.6970   -4.1000 oh        1 MOL     -0.862795
    178 H84        -0.5170   -1.6490   -4.1930 ho        1 MOL      0.418854
    179 H85         0.0140   -0.4150   -4.8960 ho        1 MOL      0.418854
@<TRIPOS>BOND
     1    1    2 1   
     2    1    4 1   
     3    1    5 1   
     4    1    6 1   
     5    2    3 2   
     6    2    7 1   
     7    7    8 1   
     8    7   15 1   
     9    8    9 1   
    10    8   11 1   
    11    8   16 1   
    12    9   10 2   
    13    9   19 1   
    14   11   12 1   
    15   11   17 1   
    16   11   18 1   
    17   12   13 1   
    18   12   14 1   
    19   19   20 1   
    20   19   28 1   
    21   20   21 1   
    22   20   23 1   
    23   20   29 1   
    24   21   22 2   
    25   21   41 1   
    26   23   24 1   
    27   23   30 1   
    28   23   31 1   
    29   24   25 1   
    30   24   32 1   
    31   24   33 1   
    32   25   26 1   
    33   25   34 1   
    34   25   35 1   
    35   26   27 1   
    36   26   36 1   
    37   26   37 1   
    38   27   38 1   
    39   27   39 1   
    40   27   40 1   
    41   41   42 1   
    42   41   49 1   
    43   42   43 1   
    44   42   45 1   
    45   42   50 1   
    46   43   44 2   
    47   43   53 1   
    48   45   46 1   
    49   45   51 1   
    50   45   52 1   
    51   46   47 1   
    52   46   48 1   
    53   53   54 1   
    54   53   57 1   
    55   54   55 1   
    56   54   58 1   
    57   54   59 1   
    58   55   56 2   
    59   55   60 1   
    60   60   61 1   
    61   60   68 1   
    62   61   62 1   
    63   61   64 1   
    64   61   69 1   
    65   62   63 2   
    66   62   74 1   
    67   64   65 1   
    68   64   70 1   
    69   64   71 1   
    70   65   66 1   
    71   65   67 2   
    72   66   72 1   
    73   66   73 1   
    74   74   75 1   
    75   74   78 1   
    76   75   76 1   
    77   75   79 1   
    78   75   80 1   
    79   76   77 2   
    80   76   81 1   
    81   81   82 1   
    82   81   93 1   
    83   82   83 1   
    84   82   85 1   
    85   82   94 1   
    86   83   84 2   
    87   83  102 1   
    88   85   86 1   
    89   85   95 1   
    90   85   96 1   
    91   86   87 ar  
    92   86   88 ar  
    93   87   89 ar  
    94   87   97 1   
    95   88   90 ar  
    96   88   98 1   
    97   89   91 ar  
    98   89   99 1   
    99   90   91 ar  
   100   90  100 1   
   101   91   92 1   
   102   92  101 1   
   103  102  103 1   
   104  102  110 1   
   105  103  104 1   
   106  103  106 1   
   107  103  111 1   
   108  104  105 2   
   109  104  121 1   
   110  106  107 1   
   111  106  108 1   
   112  106  112 1   
   113  107  109 1   
   114  107  113 1   
   115  107  114 1   
   116  108  115 1   
   117  108  116 1   
   118  108  117 1   
   119  109  118 1   
   120  109  119 1   
   121  109  120 1   
   122  121  122 1   
   123  121  127 1   
   124  122  123 1   
   125  122  125 1   
   126  122  128 1   
   127  123  124 2   
   128  123  132 1   
   129  125  126 1   
   130  125  129 1   
   131  125  130 1   
   132  126  131 1   
   133  132  133 1   
   134  132  137 1   
   135  133  134 1   
   136  133  136 1   
   137  133  138 1   
   138  134  135 2   
   139  134  142 1   
   140  136  139 1   
   141  136  140 1   
   142  136  141 1   
   143  142  143 1   
   144  142  147 1   
   145  143  144 1   
   146  143  146 1   
   147  143  148 1   
   148  144  145 2   
   149  144  152 1   
   150  146  149 1   
   151  146  150 1   
   152  146  151 1   
   153  152  153 1   
   154  152  161 1   
   155  153  154 1   
   156  153  156 1   
   157  153  162 1   
   158  154  155 2   
   159  154  167 1   
   160  156  157 1   
   161  156  163 1   
   162  156  164 1   
   163  157  158 1   
   164  157  165 1   
   165  157  166 1   
   166  158  159 1   
   167  158  160 1   
   168  167  168 1   
   169  167  172 1   
   170  168  169 1   
   171  168  170 1   
   172  168  171 1   
   173  174  175 1   
   174  174  176 1   
   175  177  178 1   
   176  177  179 1   
@<TRIPOS>SUBSTRUCTURE
     1 MOL         1 TEMP              0 ****  ****    0 ROOT
