@<TRIPOS>MOLECULE
MOL
  189   185     1     0     0
SMALL
resp


@<TRIPOS>ATOM
      1 C1          0.4250    2.5040    5.2350 c3        1 MOL     -0.432995
      2 C2         -0.3040    2.2910    3.9030 c         1 MOL      0.760991
      3 O1          0.2900    2.6710    2.8410 o         1 MOL     -0.716165
      4 H1          1.0880    1.6600    5.4250 hc        1 MOL      0.116590
      5 H2          1.0100    3.4220    5.1870 hc        1 MOL      0.116590
      6 H3         -0.3060    2.5790    6.0410 hc        1 MOL      0.116590
      7 N1         -1.5250    1.7960    3.8710 n         1 MOL     -0.663576
      8 C3         -2.2120    1.5180    2.5910 c3        1 MOL      0.562187
      9 C4         -2.8050    2.7740    1.9670 c         1 MOL      0.239022
     10 O2         -3.9350    3.1630    2.2640 o         1 MOL     -0.510302
     11 C5         -3.0700    0.2510    2.6700 c3        1 MOL     -0.567652
     12 C6         -3.8440   -0.0440    1.4000 c         1 MOL      0.866806
     13 O3         -3.3790    0.3980    0.3150 o         1 MOL     -0.651313
     14 O4         -4.8970   -0.7120    1.4170 o         1 MOL     -0.651313
     15 H4         -2.0070    1.5220    4.7120 hn        1 MOL      0.339308
     16 H5         -1.5410    1.1320    1.8200 h1        1 MOL     -0.066306
     17 H6         -3.8670    0.5110    3.3770 hc        1 MOL      0.104069
     18 H7         -2.4730   -0.6360    2.8990 hc        1 MOL      0.104069
     19 N2         -2.0110    3.4680    1.1480 n         1 MOL     -0.371968
     20 C7         -2.3080    4.8200    0.6550 c3        1 MOL      0.233540
     21 C8         -3.6090    4.9970   -0.0210 c         1 MOL      0.313467
     22 O5         -4.1410    6.1380    0.0020 o         1 MOL     -0.554099
     23 C9         -1.0220    5.2730   -0.0380 c3        1 MOL     -0.054797
     24 C10        -0.8180    6.7990    0.0040 c3        1 MOL     -0.141024
     25 C11        -0.8560    7.5030    1.3140 c3        1 MOL     -0.137509
     26 C12        -0.0260    6.7230    2.4070 c3        1 MOL      0.024685
     27 N3         -0.2760    7.1680    3.8280 n4        1 MOL     -0.430071
     28 H8         -1.1710    2.9520    0.9130 hn        1 MOL      0.426736
     29 H9         -2.4960    5.4500    1.5260 h1        1 MOL      0.033992
     30 H10        -1.0070    4.9940   -1.0960 hc        1 MOL      0.035927
     31 H11        -0.1360    4.7760    0.3490 hc        1 MOL      0.035927
     32 H12        -1.6550    7.2220   -0.5440 hc        1 MOL      0.069908
     33 H13         0.0300    7.2120   -0.5450 hc        1 MOL      0.069908
     34 H14        -1.9240    7.6240    1.5100 hc        1 MOL      0.069161
     35 H15        -0.4110    8.4870    1.2410 hc        1 MOL      0.069161
     36 H16         1.0340    6.9070    2.2180 hx        1 MOL      0.101420
     37 H17        -0.2520    5.6610    2.3830 hx        1 MOL      0.101420
     38 H18        -0.0520    8.1460    3.9290 hn        1 MOL      0.339506
     39 H19        -1.2590    7.0730    4.0350 hn        1 MOL      0.339506
     40 H20         0.3480    6.6530    4.4380 hn        1 MOL      0.339506
     41 N4         -3.9360    3.9720   -0.7740 n         1 MOL     -0.086239
     42 C13        -5.0600    3.9330   -1.7240 c3        1 MOL      0.128139
     43 C14        -6.2150    2.9850   -1.2940 c         1 MOL      0.384382
     44 O6         -7.2880    3.1160   -1.9110 o         1 MOL     -0.519221
     45 C15        -4.4780    3.5930   -3.1160 c3        1 MOL     -0.508520
     46 C16        -3.4910    2.4360   -3.1600 c         1 MOL      0.873197
     47 O7         -3.4130    1.4970   -2.2750 o         1 MOL     -0.721261
     48 O8         -2.7200    2.3310   -4.1740 o         1 MOL     -0.721261
     49 H21        -3.4720    3.0870   -0.6110 hn        1 MOL      0.059248
     50 H22        -5.5090    4.9290   -1.7340 h1        1 MOL      0.087203
     51 H23        -4.0700    4.5230   -3.4940 hc        1 MOL      0.143061
     52 H24        -5.3040    3.1630   -3.6760 hc        1 MOL      0.143061
     53 N5         -6.0980    2.1340   -0.2950 n         1 MOL     -0.226942
     54 C17        -7.1890    1.3230    0.2340 c3        1 MOL     -0.117715
     55 C18        -7.5270    0.0980   -0.6530 c         1 MOL      0.509062
     56 O9         -8.7000   -0.2120   -0.9000 o         1 MOL     -0.570601
     57 H25        -5.1570    1.7840   -0.1230 hn        1 MOL      0.193152
     58 H26        -8.1030    1.9200    0.3350 h1        1 MOL      0.089532
     59 H27        -6.8940    0.9310    1.2040 h1        1 MOL      0.089532
     60 N6         -6.5240   -0.6180   -1.2200 n         1 MOL     -0.209568
     61 C19        -6.8310   -1.9480   -1.9050 c3        1 MOL      0.112115
     62 C20        -6.8280   -3.0210   -0.7980 c         1 MOL      0.301039
     63 O10        -7.4790   -4.0890   -1.0730 o         1 MOL     -0.565134
     64 C21        -5.8120   -2.1890   -3.0170 c3        1 MOL     -0.414875
     65 C22        -4.3070   -2.0280   -2.6510 c         1 MOL      0.844914
     66 O11        -3.5700   -1.2920   -3.3450 o         1 MOL     -0.771773
     67 O12        -3.8290   -2.5490   -1.5980 o         1 MOL     -0.771773
     68 H28        -5.5730   -0.4070   -0.9520 hn        1 MOL      0.129926
     69 H29        -7.7910   -1.9130   -2.4210 h1        1 MOL      0.118728
     70 H30        -6.0830   -1.5050   -3.8230 hc        1 MOL      0.119315
     71 H31        -5.7900   -3.2490   -3.2630 hc        1 MOL      0.119315
     72 N7         -6.1650   -2.9210    0.3140 n         1 MOL      0.018189
     73 C23        -6.1640   -3.9550    1.3560 c3        1 MOL     -0.209312
     74 C24        -4.8630   -4.7430    1.4180 c         1 MOL      0.614677
     75 O13        -4.8360   -5.7290    2.0780 o         1 MOL     -0.591494
     76 H32        -5.6720   -2.0640    0.5440 hn        1 MOL      0.109036
     77 H33        -6.9830   -4.6530    1.2150 h1        1 MOL      0.093037
     78 H34        -6.2400   -3.4380    2.3230 h1        1 MOL      0.093037
     79 N8         -3.8490   -4.3020    0.7280 n         1 MOL     -0.210691
     80 C25        -2.4480   -4.7600    0.7410 c3        1 MOL     -0.312425
     81 C26        -1.4440   -3.6310    0.9650 c         1 MOL      0.807997
     82 O14        -1.5710   -2.4730    0.5090 o         1 MOL     -0.634607
     83 C27        -2.0840   -5.5380   -0.5660 c3        1 MOL      0.445578
     84 C28        -2.6910   -6.9210   -0.7920 c3        1 MOL     -0.580612
     85 O15        -2.4480   -4.8630   -1.7640 oh        1 MOL     -0.618442
     86 H35        -4.0760   -3.4410    0.2630 hn        1 MOL      0.155200
     87 H36        -2.2960   -5.4040    1.6080 h1        1 MOL      0.124448
     88 H37        -1.0080   -5.6610   -0.7030 h1        1 MOL      0.018422
     89 H38        -3.2200   -4.3130   -1.6270 ho        1 MOL      0.402880
     90 H39        -2.4450   -7.1900   -1.8230 hc        1 MOL      0.156639
     91 H40        -2.2990   -7.5910   -0.0290 hc        1 MOL      0.156639
     92 H41        -3.7740   -6.8400   -0.6740 hc        1 MOL      0.156639
     93 N9         -0.3660   -4.0210    1.6650 n         1 MOL     -0.766194
     94 C29         0.8440   -3.1500    1.7490 c3        1 MOL      0.155408
     95 C30         2.0260   -3.6440    0.9680 c         1 MOL      0.405769
     96 O16         2.3640   -4.8280    1.0140 o         1 MOL     -0.567201
     97 C31         1.1120   -2.9280    3.2610 c3        1 MOL      0.251938
     98 C32        -0.1680   -2.3910    3.9840 c3        1 MOL      0.116112
     99 C33         2.3030   -1.9850    3.5270 c3        1 MOL     -0.585474
    100 C34        -0.1820   -2.4960    5.5660 c3        1 MOL     -0.208630
    101 H42        -0.3730   -4.9380    2.0770 hn        1 MOL      0.349678
    102 H43         0.5700   -2.1900    1.3130 h1        1 MOL      0.075559
    103 H44         1.3140   -3.8860    3.7450 hc        1 MOL     -0.018160
    104 H45        -1.0860   -2.8960    3.6780 hc        1 MOL      0.009251
    105 H46        -0.2930   -1.3520    3.6930 hc        1 MOL      0.009251
    106 H47         3.2170   -2.4040    3.1060 hc        1 MOL      0.112116
    107 H48         2.1530   -1.0010    3.0590 hc        1 MOL      0.112116
    108 H49         2.4320   -1.7820    4.5850 hc        1 MOL      0.112116
    109 H50         0.6730   -1.9400    5.9600 hc        1 MOL      0.044823
    110 H51        -1.0400   -2.0380    6.0490 hc        1 MOL      0.044823
    111 H52        -0.1730   -3.5440    5.8720 hc        1 MOL      0.044823
    112 N10         2.6520   -2.7750    0.2180 n         1 MOL      0.019470
    113 C35         3.8410   -3.0710   -0.4960 c3        1 MOL      0.038995
    114 C36         5.1150   -2.6190    0.1600 c         1 MOL      0.214759
    115 O17         5.1600   -1.8420    1.1330 o         1 MOL     -0.341252
    116 C37         3.8060   -2.5660   -1.9320 c3        1 MOL      0.276728
    117 C38         2.4950   -2.9790   -2.6080 c3        1 MOL     -0.565243
    118 O18         3.9100   -1.1800   -1.9820 oh        1 MOL     -0.668782
    119 H53         2.3250   -1.8290    0.1140 hn        1 MOL      0.209774
    120 H54         3.9140   -4.1360   -0.6680 h1        1 MOL      0.042260
    121 H55         4.6450   -3.0950   -2.3830 h1        1 MOL      0.031890
    122 H56         3.0890   -0.8170   -2.3130 ho        1 MOL      0.433661
    123 H57         2.0850   -2.3180   -3.3760 hc        1 MOL      0.155161
    124 H58         2.8340   -3.8800   -3.1170 hc        1 MOL      0.155161
    125 H59         1.6890   -3.1780   -1.9010 hc        1 MOL      0.155161
    126 N11         6.2730   -3.1700   -0.2710 n         1 MOL     -0.215621
    127 C39         7.6260   -2.6190    0.1340 c3        1 MOL     -0.243114
    128 C40         7.8220   -1.1430   -0.0340 c         1 MOL      0.440331
    129 O19         8.5680   -0.5160    0.7390 o         1 MOL     -0.483174
    130 C41         8.8320   -3.2220   -0.5780 c3        1 MOL      0.311756
    131 C42         9.1490   -4.6580   -0.1670 c3        1 MOL     -0.473620
    132 O20         8.4990   -3.2420   -1.9760 oh        1 MOL     -0.679015
    133 H60         6.2540   -3.8680   -0.9860 hn        1 MOL      0.283508
    134 H61         7.7360   -2.8170    1.2030 h1        1 MOL      0.172309
    135 H62         9.7700   -2.6670   -0.5150 h1        1 MOL      0.087409
    136 H63         9.2700   -3.5430   -2.4760 ho        1 MOL      0.428804
    137 H64         8.8400   -4.8530    0.8610 hc        1 MOL      0.132970
    138 H65         8.5810   -5.3630   -0.7730 hc        1 MOL      0.132970
    139 H66        10.2310   -4.7700   -0.3070 hc        1 MOL      0.132970
    140 N12         7.2310   -0.4630   -1.0930 n         1 MOL     -0.299179
    141 C43         7.2250    0.9630   -1.2340 c3        1 MOL     -0.112194
    142 C44         6.4240    1.6080   -0.0670 c         1 MOL      0.381892
    143 O21         6.9640    2.4510    0.6740 o         1 MOL     -0.503748
    144 C45         6.6740    1.2930   -2.6200 c3        1 MOL     -0.053544
    145 C46         6.9010    2.8080   -2.9660 c3        1 MOL     -0.123980
    146 C47         6.0500    3.1690   -4.1690 c3        1 MOL      0.069896
    147 C48         6.3820    4.5290   -4.6850 c3        1 MOL     -0.096434
    148 N13         7.7350    4.5760   -5.2880 n4        1 MOL     -0.360560
    149 H67         6.6410   -0.9980   -1.7240 hn        1 MOL      0.252889
    150 H68         8.2460    1.3300   -1.1240 h1        1 MOL      0.113397
    151 H69         5.6040    1.1420   -2.5360 hc        1 MOL      0.039966
    152 H70         6.9990    0.5870   -3.3890 hc        1 MOL      0.039966
    153 H71         7.9380    2.9310   -3.2900 hc        1 MOL      0.057624
    154 H72         6.6140    3.3830   -2.0940 hc        1 MOL      0.057624
    155 H73         5.0030    3.1150   -3.8540 hc        1 MOL      0.032761
    156 H74         6.1530    2.5260   -5.0430 hc        1 MOL      0.032761
    157 H75         6.2920    5.1960   -3.8180 hx        1 MOL      0.128749
    158 H76         5.6400    4.8100   -5.4330 hx        1 MOL      0.128749
    159 H77         8.0120    5.5200   -5.5160 hn        1 MOL      0.323263
    160 H78         8.4350    4.1020   -4.7370 hn        1 MOL      0.323263
    161 H79         7.7660    4.0470   -6.1560 hn        1 MOL      0.323263
    162 N14         5.1550    1.2290    0.0650 n         1 MOL     -0.145667
    163 C49         4.1850    1.7590    1.0950 c3        1 MOL     -0.284754
    164 C50         4.7140    1.6840    2.5500 c         1 MOL      0.457189
    165 O22         4.3790    2.6110    3.3220 o         1 MOL     -0.574040
    166 C51         2.8070    1.0750    0.9800 c3        1 MOL      0.243127
    167 C52         2.0290    1.5260   -0.2360 c3        1 MOL     -0.214844
    168 C53         0.6340    0.8750   -0.5530 c         1 MOL      0.728986
    169 O23         0.5790   -0.4240   -0.5930 o         1 MOL     -0.764827
    170 O24        -0.4320    1.6170   -0.7100 o         1 MOL     -0.764827
    171 H80         4.8470    0.4880   -0.5340 hn        1 MOL      0.286890
    172 H81         3.9770    2.8160    0.9420 h1        1 MOL      0.144987
    173 H82         2.2690    1.2460    1.9090 hc        1 MOL     -0.001117
    174 H83         2.9240   -0.0160    0.9420 hc        1 MOL     -0.001117
    175 H84         2.6410    1.3160   -1.1100 hc        1 MOL      0.018663
    176 H85         1.9250    2.6090   -0.1460 hc        1 MOL      0.018663
    177 N15         5.5440    0.7650    2.9510 n         1 MOL     -0.010826
    178 C54         6.2110    0.7570    4.2890 c3        1 MOL     -0.364777
    179 H86         6.8180   -0.1430    4.3880 h1        1 MOL      0.135737
    180 H87         6.8490    1.6360    4.3840 h1        1 MOL      0.135737
    181 H88         5.4540    0.7710    5.0730 h1        1 MOL      0.135737
    182 H89         5.6440   -0.0440    2.3480 hn        1 MOL      0.132958
    183 Ca1        -1.9130   -0.4680   -1.6090 Ca        1 MOL      1.750999
    184 O25        -0.9440   -2.9520   -2.7060 oh        1 MOL     -0.863621
    185 H90        -1.4220   -3.5970   -2.1890 ho        1 MOL      0.401954
    186 H91        -1.0840   -3.2380   -3.6150 ho        1 MOL      0.401954
    187 O26        -0.6940    0.4360   -3.8950 oh        1 MOL     -0.863621
    188 H92        -0.5990    0.0310   -4.7620 ho        1 MOL      0.401954
    189 H93        -1.3790    1.1000   -4.0270 ho        1 MOL      0.401954
@<TRIPOS>BOND
     1    1    2 1   
     2    1    4 1   
     3    1    5 1   
     4    1    6 1   
     5    2    3 2   
     6    2    7 1   
     7    7    8 1   
     8    7   15 1   
     9    8    9 1   
    10    8   11 1   
    11    8   16 1   
    12    9   10 2   
    13    9   19 1   
    14   11   12 1   
    15   11   17 1   
    16   11   18 1   
    17   12   13 1   
    18   12   14 1   
    19   19   20 1   
    20   19   28 1   
    21   20   21 1   
    22   20   23 1   
    23   20   29 1   
    24   21   22 2   
    25   21   41 1   
    26   23   24 1   
    27   23   30 1   
    28   23   31 1   
    29   24   25 1   
    30   24   32 1   
    31   24   33 1   
    32   25   26 1   
    33   25   34 1   
    34   25   35 1   
    35   26   27 1   
    36   26   36 1   
    37   26   37 1   
    38   27   38 1   
    39   27   39 1   
    40   27   40 1   
    41   41   42 1   
    42   41   49 1   
    43   42   43 1   
    44   42   45 1   
    45   42   50 1   
    46   43   44 2   
    47   43   53 1   
    48   45   46 1   
    49   45   51 1   
    50   45   52 1   
    51   46   47 1   
    52   46   48 1   
    53   53   54 1   
    54   53   57 1   
    55   54   55 1   
    56   54   58 1   
    57   54   59 1   
    58   55   56 2   
    59   55   60 1   
    60   60   61 1   
    61   60   68 1   
    62   61   62 1   
    63   61   64 1   
    64   61   69 1   
    65   62   63 2   
    66   62   72 1   
    67   64   65 1   
    68   64   70 1   
    69   64   71 1   
    70   65   66 1   
    71   65   67 1   
    72   72   73 1   
    73   72   76 1   
    74   73   74 1   
    75   73   77 1   
    76   73   78 1   
    77   74   75 2   
    78   74   79 1   
    79   79   80 1   
    80   79   86 1   
    81   80   81 1   
    82   80   83 1   
    83   80   87 1   
    84   81   82 2   
    85   81   93 1   
    86   83   84 1   
    87   83   85 1   
    88   83   88 1   
    89   84   90 1   
    90   84   91 1   
    91   84   92 1   
    92   85   89 1   
    93   93   94 1   
    94   93  101 1   
    95   94   95 1   
    96   94   97 1   
    97   94  102 1   
    98   95   96 2   
    99   95  112 1   
   100   97   98 1   
   101   97   99 1   
   102   97  103 1   
   103   98  100 1   
   104   98  104 1   
   105   98  105 1   
   106   99  106 1   
   107   99  107 1   
   108   99  108 1   
   109  100  109 1   
   110  100  110 1   
   111  100  111 1   
   112  112  113 1   
   113  112  119 1   
   114  113  114 1   
   115  113  116 1   
   116  113  120 1   
   117  114  115 2   
   118  114  126 1   
   119  116  117 1   
   120  116  118 1   
   121  116  121 1   
   122  117  123 1   
   123  117  124 1   
   124  117  125 1   
   125  118  122 1   
   126  126  127 1   
   127  126  133 1   
   128  127  128 1   
   129  127  130 1   
   130  127  134 1   
   131  128  129 2   
   132  128  140 1   
   133  130  131 1   
   134  130  132 1   
   135  130  135 1   
   136  131  137 1   
   137  131  138 1   
   138  131  139 1   
   139  132  136 1   
   140  140  141 1   
   141  140  149 1   
   142  141  142 1   
   143  141  144 1   
   144  141  150 1   
   145  142  143 2   
   146  142  162 1   
   147  144  145 1   
   148  144  151 1   
   149  144  152 1   
   150  145  146 1   
   151  145  153 1   
   152  145  154 1   
   153  146  147 1   
   154  146  155 1   
   155  146  156 1   
   156  147  148 1   
   157  147  157 1   
   158  147  158 1   
   159  148  159 1   
   160  148  160 1   
   161  148  161 1   
   162  162  163 1   
   163  162  171 1   
   164  163  164 1   
   165  163  166 1   
   166  163  172 1   
   167  164  165 2   
   168  164  177 1   
   169  166  167 1   
   170  166  173 1   
   171  166  174 1   
   172  167  168 1   
   173  167  175 1   
   174  167  176 1   
   175  168  169 1   
   176  168  170 1   
   177  177  178 1   
   178  177  182 1   
   179  178  179 1   
   180  178  180 1   
   181  178  181 1   
   182  184  185 1   
   183  184  186 1   
   184  187  188 1   
   185  187  189 1   
@<TRIPOS>SUBSTRUCTURE
     1 MOL         1 TEMP              0 ****  ****    0 ROOT
