@<TRIPOS>MOLECULE
MOL
  175   173     1     0     0
SMALL
resp


@<TRIPOS>ATOM
      1 C1          0.5550    4.4250    4.5140 c3        1 MOL     -0.327173
      2 C2          0.0380    3.7850    3.2440 c         1 MOL      0.699457
      3 O1          0.3470    4.3480    2.2030 o         1 MOL     -0.590904
      4 H1          1.0000    5.3920    4.2780 hc        1 MOL      0.077129
      5 H2         -0.2690    4.5660    5.2130 hc        1 MOL      0.077129
      6 H3          1.3090    3.7800    4.9660 hc        1 MOL      0.077129
      7 N1         -0.8190    2.7790    3.2780 n         1 MOL     -0.529691
      8 C3         -1.5240    2.2290    2.0980 c3        1 MOL      0.146151
      9 C4         -2.5320    3.3100    1.6200 c         1 MOL      0.366797
     10 O2         -3.5720    3.5060    2.2660 o         1 MOL     -0.547870
     11 C5         -2.2470    0.9380    2.4670 c3        1 MOL     -0.187070
     12 C6         -3.0230    0.3530    1.3540 c         1 MOL      0.919189
     13 O3         -2.8660    0.6700    0.1470 o         1 MOL     -0.813561
     14 O4         -3.8530   -0.5470    1.6110 o         1 MOL     -0.813561
     15 H4         -0.9940    2.3580    4.1820 hn        1 MOL      0.287601
     16 H5         -0.7730    2.0630    1.3270 h1        1 MOL      0.050168
     17 H6         -2.8790    1.0200    3.3550 hc        1 MOL      0.055932
     18 H7         -1.5260    0.1590    2.7010 hc        1 MOL      0.055932
     19 N2         -2.2500    3.9170    0.4660 n         1 MOL     -0.103461
     20 C7         -2.9250    5.1980    0.0420 c3        1 MOL      0.103272
     21 C8         -4.2520    4.9370   -0.6560 c         1 MOL      0.395183
     22 O5         -5.0330    5.9030   -0.9430 o         1 MOL     -0.570978
     23 C9         -1.9600    5.9700   -0.8620 c3        1 MOL     -0.313473
     24 H8         -1.4030    3.7180   -0.0380 hn        1 MOL      0.197925
     25 H9         -3.3050    5.7360    0.9030 h1        1 MOL      0.062273
     26 H10        -1.8110    5.4700   -1.8190 hc        1 MOL      0.092409
     27 H11        -2.2950    7.0060   -0.9830 hc        1 MOL      0.092409
     28 H12        -1.0100    5.9820   -0.3270 hc        1 MOL      0.092409
     29 N3         -4.5220    3.6740   -1.0240 n         1 MOL     -0.139984
     30 C10        -5.8210    3.3200   -1.6510 c3        1 MOL      0.161711
     31 C11        -6.7330    2.6340   -0.6570 c         1 MOL      0.292507
     32 O6         -7.9740    2.5920   -0.8590 o         1 MOL     -0.538189
     33 C12        -5.5720    2.4730   -2.9360 c3        1 MOL     -0.304120
     34 C13        -4.8240    1.1880   -2.6110 c         1 MOL      0.774174
     35 O7         -3.6010    1.1970   -2.6730 o         1 MOL     -0.692922
     36 O8         -5.4840    0.1640   -2.2900 o         1 MOL     -0.692922
     37 H13        -3.9210    2.9410   -0.6500 hn        1 MOL     -0.015634
     38 H14        -6.4010    4.2100   -1.9140 h1        1 MOL      0.080271
     39 H15        -5.0900    3.0560   -3.7270 hc        1 MOL      0.059234
     40 H16        -6.6050    2.1870   -3.1270 hc        1 MOL      0.059234
     41 N4         -6.2110    2.1610    0.4510 n         1 MOL      0.028913
     42 C14        -6.9140    1.5530    1.5760 c3        1 MOL     -0.418427
     43 C15        -7.4280    0.1390    1.3300 c         1 MOL      0.596782
     44 O9         -7.9800   -0.4540    2.2630 o         1 MOL     -0.609678
     45 H17        -5.2150    2.2950    0.5050 hn        1 MOL      0.097486
     46 H18        -7.6930    2.3060    1.6890 h1        1 MOL      0.170379
     47 H19        -6.2870    1.4680    2.4640 h1        1 MOL      0.170379
     48 N5         -7.2890   -0.4370    0.1400 n         1 MOL     -0.257342
     49 C16        -7.7800   -1.7970   -0.1310 c3        1 MOL      0.004576
     50 C17        -7.0200   -2.8830    0.7140 c         1 MOL      0.423103
     51 O10        -7.4020   -4.0420    0.6760 o         1 MOL     -0.535881
     52 C18        -7.6960   -2.1000   -1.5570 c3        1 MOL     -0.419874
     53 C19        -8.7280   -1.2380   -2.4050 c         1 MOL      0.696086
     54 N6         -8.2130   -0.3190   -3.1920 n         1 MOL     -0.828797
     55 O11        -9.9610   -1.2750   -2.3140 o         1 MOL     -0.596635
     56 H20        -6.8050    0.0950   -0.5700 hn        1 MOL      0.241706
     57 H21        -8.8500   -1.8800    0.0770 h1        1 MOL      0.103342
     58 H22        -8.0590   -3.1240   -1.6800 hc        1 MOL      0.139698
     59 H23        -6.6930   -2.0630   -1.9950 hc        1 MOL      0.139698
     60 H24        -7.2280   -0.0930   -3.1280 hn        1 MOL      0.365653
     61 H25        -8.8850    0.3780   -3.4980 hn        1 MOL      0.365653
     62 N7         -6.0310   -2.5180    1.5250 n         1 MOL     -0.086868
     63 C20        -5.5200   -3.3730    2.6330 c3        1 MOL     -0.113203
     64 C21        -4.3820   -4.1920    2.0190 c         1 MOL      0.664890
     65 O12        -4.2440   -5.3360    2.4470 o         1 MOL     -0.597070
     66 H26        -5.6400   -1.5940    1.4670 hn        1 MOL      0.230775
     67 H27        -6.3460   -3.9430    3.0510 h1        1 MOL      0.068825
     68 H28        -5.0900   -2.7360    3.4030 h1        1 MOL      0.068825
     69 N8         -3.5190   -3.5940    1.1640 n         1 MOL     -0.439483
     70 C22        -2.2450   -4.1540    0.6460 c3        1 MOL     -0.100287
     71 C23        -1.1250   -3.1190    0.5880 c         1 MOL      0.741277
     72 O13        -1.1800   -2.1620   -0.2060 o         1 MOL     -0.639441
     73 C24        -2.4900   -4.8980   -0.6750 c3        1 MOL      0.443820
     74 C25        -2.6200   -6.4050   -0.4620 c3        1 MOL     -0.360555
     75 O14        -3.6180   -4.5580   -1.3310 oh        1 MOL     -0.590861
     76 H29        -3.9570   -2.7730    0.7630 hn        1 MOL      0.191066
     77 H30        -1.8420   -4.8500    1.3830 h1        1 MOL      0.078158
     78 H31        -1.5840   -4.7540   -1.2640 h1        1 MOL     -0.045197
     79 H32        -3.5660   -3.6010   -1.4140 ho        1 MOL      0.403181
     80 H33        -1.7530   -6.7510    0.0930 hc        1 MOL      0.084918
     81 H34        -3.5420   -6.7890   -0.0250 hc        1 MOL      0.084918
     82 H35        -2.5680   -6.8760   -1.4430 hc        1 MOL      0.084918
     83 N9         -0.1240   -3.2420    1.4740 n         1 MOL     -0.573220
     84 C26         1.0880   -2.4030    1.5760 c3        1 MOL     -0.291190
     85 C27         2.1380   -2.7790    0.5190 c         1 MOL      0.534097
     86 O15         2.7170   -3.9130    0.5350 o         1 MOL     -0.573136
     87 C28         1.7180   -2.3630    3.0260 c3        1 MOL      0.424091
     88 C29         0.6390   -2.3200    4.1640 c3        1 MOL      0.178807
     89 C30         2.6950   -1.1650    3.1420 c3        1 MOL     -0.409354
     90 C31         1.1380   -2.4500    5.6090 c3        1 MOL     -0.261669
     91 H36        -0.0680   -4.0770    2.0370 hn        1 MOL      0.325917
     92 H37         0.7550   -1.3900    1.3670 h1        1 MOL      0.296244
     93 H38         2.2750   -3.2450    3.3210 hc        1 MOL     -0.077437
     94 H39        -0.0640   -3.1200    3.9380 hc        1 MOL     -0.067769
     95 H40         0.1520   -1.3640    4.0300 hc        1 MOL     -0.067769
     96 H41         2.8310   -1.0290    4.2050 hc        1 MOL      0.072071
     97 H42         3.5720   -1.4290    2.5420 hc        1 MOL      0.072071
     98 H43         2.1740   -0.3100    2.7230 hc        1 MOL      0.072071
     99 H44         2.0170   -3.1010    5.6200 hc        1 MOL      0.057140
    100 H45         1.4110   -1.4510    5.9410 hc        1 MOL      0.057140
    101 H46         0.3300   -2.7780    6.2550 hc        1 MOL      0.057140
    102 N10         2.2970   -1.7910   -0.3970 n         1 MOL      0.005437
    103 C32         3.3740   -1.8650   -1.3460 c3        1 MOL      0.027164
    104 C33         4.7750   -1.6030   -0.6930 c         1 MOL      0.274235
    105 O16         4.8470   -1.0330    0.4110 o         1 MOL     -0.302054
    106 C34         3.2140   -0.8060   -2.4840 c3        1 MOL     -0.053485
    107 C35         1.9280   -1.1340   -3.2070 c         1 MOL      0.649013
    108 O17         2.0230   -1.7160   -4.2980 o         1 MOL     -0.684480
    109 O18         0.7700   -0.7770   -2.7820 o         1 MOL     -0.684480
    110 H47         1.8230   -0.9020   -0.3450 hn        1 MOL     -0.233107
    111 H48         3.3800   -2.8470   -1.8270 h1        1 MOL      0.055835
    112 H49         4.0450   -0.7530   -3.1860 hc        1 MOL      0.039158
    113 H50         3.1810    0.1390   -1.9440 hc        1 MOL      0.039158
    114 N11         5.8760   -1.7900   -1.4010 n         1 MOL     -0.448733
    115 C36         7.2150   -1.5970   -0.8360 c3        1 MOL      0.299060
    116 C37         7.4780   -0.0690   -0.6600 c         1 MOL      0.374108
    117 O19         7.9380    0.3310    0.4230 o         1 MOL     -0.500852
    118 C38         8.2590   -2.3480   -1.6320 c3        1 MOL     -0.017477
    119 C39         9.6770   -2.1270   -1.2480 ca        1 MOL     -0.002118
    120 C40        10.0480   -2.5970   -0.0060 ca        1 MOL     -0.124803
    121 C41        10.5080   -1.1990   -1.8710 ca        1 MOL     -0.124803
    122 C42        11.2410   -2.2330    0.5360 ca        1 MOL     -0.148862
    123 C43        11.7780   -0.9300   -1.3570 ca        1 MOL     -0.148862
    124 C44        12.1350   -1.4300   -0.0960 ca        1 MOL     -0.024303
    125 H51         5.8460   -2.1670   -2.3410 hn        1 MOL      0.265830
    126 H52         7.2280   -2.0320    0.1700 h1        1 MOL      0.043186
    127 H53         8.3190   -2.0000   -2.6650 hc        1 MOL      0.009903
    128 H54         7.9350   -3.3920   -1.7170 hc        1 MOL      0.009903
    129 H55         9.3440   -3.2670    0.4740 ha        1 MOL      0.111548
    130 H56        10.1730   -0.5960   -2.6990 ha        1 MOL      0.111548
    131 H57        11.4400   -2.4580    1.5740 ha        1 MOL      0.108576
    132 H58        12.4930   -0.3560   -1.9230 ha        1 MOL      0.108576
    133 H59        13.1140   -1.2430    0.3140 ha        1 MOL      0.080596
    134 N12         7.1430    0.8700   -1.6010 n         1 MOL     -0.086750
    135 C45         7.1450    2.3240   -1.2670 c3        1 MOL      0.004523
    136 C46         6.2510    2.7770   -0.0660 c         1 MOL      0.257472
    137 O20         6.5220    3.8230    0.5270 o         1 MOL     -0.497376
    138 C47         6.7920    2.9830   -2.5970 c3        1 MOL     -0.012372
    139 C48         7.3620    1.9350   -3.5510 c3        1 MOL     -0.066687
    140 C49         6.8770    0.6710   -2.9630 c3        1 MOL     -0.067821
    141 H60         8.1400    2.6600   -0.9850 h1        1 MOL      0.077938
    142 H61         5.7170    2.9950   -2.8010 hc        1 MOL      0.044938
    143 H62         7.2180    3.9800   -2.7100 hc        1 MOL      0.044938
    144 H63         6.9820    2.1410   -4.5610 hc        1 MOL      0.024323
    145 H64         8.4410    2.0920   -3.5040 hc        1 MOL      0.024323
    146 H65         5.8160    0.6270   -3.1910 h1        1 MOL      0.045377
    147 H66         7.3800   -0.1850   -3.4160 h1        1 MOL      0.045377
    148 N13         5.1300    2.1200    0.1840 n         1 MOL     -0.061895
    149 C50         4.2790    2.5280    1.3580 c3        1 MOL      0.012209
    150 C51         4.8620    1.9840    2.6510 c         1 MOL      0.436834
    151 O21         4.8420    2.6730    3.6240 o         1 MOL     -0.551093
    152 C52         2.9030    1.8550    1.0210 c3        1 MOL      0.022914
    153 C53         2.1800    2.4770   -0.1930 c3        1 MOL     -0.313294
    154 C54         0.8390    1.7560   -0.3550 c         1 MOL      1.011866
    155 O22         0.7100    0.5800   -0.1110 o         1 MOL     -0.806653
    156 O23        -0.0660    2.2300   -1.0450 o         1 MOL     -0.806653
    157 H67         4.8720    1.3260   -0.4000 hn        1 MOL      0.135560
    158 H68         4.2480    3.6080    1.4360 h1        1 MOL      0.098788
    159 H69         2.2320    1.9040    1.8740 hc        1 MOL      0.013319
    160 H70         3.0000    0.8140    0.7220 hc        1 MOL      0.013319
    161 H71         2.8470    2.4500   -1.0570 hc        1 MOL      0.054892
    162 H72         1.9260    3.5050    0.0680 hc        1 MOL      0.054892
    163 N14         5.5940    0.8580    2.6430 n         1 MOL     -0.002385
    164 C55         6.5950    0.4190    3.6610 c3        1 MOL     -0.211406
    165 H73         7.4780    1.0560    3.6000 h1        1 MOL      0.081205
    166 H74         6.1600    0.4980    4.6570 h1        1 MOL      0.081205
    167 H75         6.8810   -0.6160    3.4690 h1        1 MOL      0.081205
    168 H76         5.4410    0.2910    1.8180 hn        1 MOL      0.007848
    169 Ca1        -1.4180   -0.0060   -1.8080 Ca        1 MOL      1.820492
    170 O24        -1.1930    0.8120   -4.2610 oh        1 MOL     -0.894718
    171 H77        -0.4120    0.6890   -4.8060 ho        1 MOL      0.423718
    172 H78        -1.9090    0.9010   -4.8880 ho        1 MOL      0.423718
    173 O25        -2.5170   -2.1660   -3.2860 oh        1 MOL     -0.894718
    174 H79        -3.3160   -2.2610   -3.8070 ho        1 MOL      0.423718
    175 H80        -1.8660   -2.6940   -3.7530 ho        1 MOL      0.423718
@<TRIPOS>BOND
     1    1    2 1   
     2    1    4 1   
     3    1    5 1   
     4    1    6 1   
     5    2    3 2   
     6    2    7 1   
     7    7    8 1   
     8    7   15 1   
     9    8    9 1   
    10    8   11 1   
    11    8   16 1   
    12    9   10 2   
    13    9   19 1   
    14   11   12 1   
    15   11   17 1   
    16   11   18 1   
    17   12   13 1   
    18   12   14 1   
    19   19   20 1   
    20   19   24 1   
    21   20   21 1   
    22   20   23 1   
    23   20   25 1   
    24   21   22 2   
    25   21   29 1   
    26   23   26 1   
    27   23   27 1   
    28   23   28 1   
    29   29   30 1   
    30   29   37 1   
    31   30   31 1   
    32   30   33 1   
    33   30   38 1   
    34   31   32 2   
    35   31   41 1   
    36   33   34 1   
    37   33   39 1   
    38   33   40 1   
    39   34   35 1   
    40   34   36 1   
    41   41   42 1   
    42   41   45 1   
    43   42   43 1   
    44   42   46 1   
    45   42   47 1   
    46   43   44 2   
    47   43   48 1   
    48   48   49 1   
    49   48   56 1   
    50   49   50 1   
    51   49   52 1   
    52   49   57 1   
    53   50   51 2   
    54   50   62 1   
    55   52   53 1   
    56   52   58 1   
    57   52   59 1   
    58   53   54 1   
    59   53   55 2   
    60   54   60 1   
    61   54   61 1   
    62   62   63 1   
    63   62   66 1   
    64   63   64 1   
    65   63   67 1   
    66   63   68 1   
    67   64   65 2   
    68   64   69 1   
    69   69   70 1   
    70   69   76 1   
    71   70   71 1   
    72   70   73 1   
    73   70   77 1   
    74   71   72 2   
    75   71   83 1   
    76   73   74 1   
    77   73   75 1   
    78   73   78 1   
    79   74   80 1   
    80   74   81 1   
    81   74   82 1   
    82   75   79 1   
    83   83   84 1   
    84   83   91 1   
    85   84   85 1   
    86   84   87 1   
    87   84   92 1   
    88   85   86 2   
    89   85  102 1   
    90   87   88 1   
    91   87   89 1   
    92   87   93 1   
    93   88   90 1   
    94   88   94 1   
    95   88   95 1   
    96   89   96 1   
    97   89   97 1   
    98   89   98 1   
    99   90   99 1   
   100   90  100 1   
   101   90  101 1   
   102  102  103 1   
   103  102  110 1   
   104  103  104 1   
   105  103  106 1   
   106  103  111 1   
   107  104  105 2   
   108  104  114 1   
   109  106  107 1   
   110  106  112 1   
   111  106  113 1   
   112  107  108 1   
   113  107  109 1   
   114  114  115 1   
   115  114  125 1   
   116  115  116 1   
   117  115  118 1   
   118  115  126 1   
   119  116  117 2   
   120  116  134 1   
   121  118  119 1   
   122  118  127 1   
   123  118  128 1   
   124  119  120 ar  
   125  119  121 ar  
   126  120  122 ar  
   127  120  129 1   
   128  121  123 ar  
   129  121  130 1   
   130  122  124 ar  
   131  122  131 1   
   132  123  124 ar  
   133  123  132 1   
   134  124  133 1   
   135  134  135 1   
   136  134  140 1   
   137  135  136 1   
   138  135  138 1   
   139  135  141 1   
   140  136  137 2   
   141  136  148 1   
   142  138  139 1   
   143  138  142 1   
   144  138  143 1   
   145  139  140 1   
   146  139  144 1   
   147  139  145 1   
   148  140  146 1   
   149  140  147 1   
   150  148  149 1   
   151  148  157 1   
   152  149  150 1   
   153  149  152 1   
   154  149  158 1   
   155  150  151 2   
   156  150  163 1   
   157  152  153 1   
   158  152  159 1   
   159  152  160 1   
   160  153  154 1   
   161  153  161 1   
   162  153  162 1   
   163  154  155 1   
   164  154  156 1   
   165  163  164 1   
   166  163  168 1   
   167  164  165 1   
   168  164  166 1   
   169  164  167 1   
   170  170  171 1   
   171  170  172 1   
   172  173  174 1   
   173  173  175 1   
@<TRIPOS>SUBSTRUCTURE
     1 MOL         1 TEMP              0 ****  ****    0 ROOT
