@<TRIPOS>MOLECULE
MOL
  189   185     1     0     0
SMALL
resp


@<TRIPOS>ATOM
      1 C1         -1.4730    0.2820    6.9690 c3        1 MOL     -0.114951
      2 C2         -1.3950    0.4580    5.4310 c         1 MOL      0.799580
      3 O1         -0.3160    0.9030    5.0080 o         1 MOL     -0.628947
      4 H1         -2.4360    0.6470    7.3280 hc        1 MOL      0.014158
      5 H2         -1.3670   -0.7730    7.2210 hc        1 MOL      0.014158
      6 H3         -0.6720    0.8510    7.4410 hc        1 MOL      0.014158
      7 N1         -2.3850    0.0030    4.6640 n         1 MOL     -0.699450
      8 C3         -2.6110    0.4860    3.2710 c3        1 MOL      0.135100
      9 C4         -2.7580    2.0870    3.3540 c         1 MOL      0.516877
     10 O2         -3.5450    2.6280    4.1250 o         1 MOL     -0.550324
     11 C5         -3.8830   -0.2550    2.7850 c3        1 MOL     -0.110159
     12 C6         -4.2350    0.1110    1.3290 c         1 MOL      0.654823
     13 O3         -5.4330   -0.0820    0.9440 o         1 MOL     -0.638895
     14 O4         -3.3580    0.7110    0.6170 o         1 MOL     -0.638895
     15 H4         -3.1200   -0.5510    5.0670 hn        1 MOL      0.344123
     16 H5         -1.8240    0.2010    2.5790 h1        1 MOL      0.100665
     17 H6         -4.6710   -0.2330    3.5400 hc        1 MOL      0.022361
     18 H7         -3.5960   -1.3040    2.6590 hc        1 MOL      0.022361
     19 N2         -1.9460    2.7940    2.5500 n         1 MOL     -0.141178
     20 C7         -1.8810    4.2550    2.4350 c3        1 MOL     -0.123730
     21 C8         -2.9850    4.8420    1.5830 c         1 MOL      0.613924
     22 O5         -3.2820    5.9840    1.7500 o         1 MOL     -0.562328
     23 C9         -0.4490    4.6660    2.2010 c3        1 MOL     -0.106724
     24 C10         0.0340    4.4340    0.7260 c3        1 MOL      0.078714
     25 C11         1.4480    4.9530    0.6220 c3        1 MOL     -0.146291
     26 C12         1.9770    4.5340   -0.8090 c3        1 MOL      0.088772
     27 N3          1.1270    5.2120   -1.8190 n4        1 MOL     -0.399925
     28 H8         -1.5250    2.2340    1.8330 hn        1 MOL     -0.073612
     29 H9         -2.0780    4.5180    3.4780 h1        1 MOL      0.117454
     30 H10         0.2400    4.2500    2.9350 hc        1 MOL      0.068113
     31 H11        -0.3590    5.7510    2.3470 hc        1 MOL      0.068113
     32 H12        -0.5760    4.9220   -0.0410 hc        1 MOL      0.019741
     33 H13        -0.0240    3.3670    0.5320 hc        1 MOL      0.019741
     34 H14         2.0740    4.5580    1.4230 hc        1 MOL      0.055802
     35 H15         1.4630    6.0410    0.6720 hc        1 MOL      0.055802
     36 H16         1.8680    3.4550   -0.9150 hx        1 MOL      0.039384
     37 H17         3.0220    4.8430   -0.8390 hx        1 MOL      0.039384
     38 H18         0.3700    4.6560   -2.1750 hn        1 MOL      0.313615
     39 H19         0.7810    6.1370   -1.6030 hn        1 MOL      0.313615
     40 H20         1.7800    5.3900   -2.5670 hn        1 MOL      0.313615
     41 N4         -3.6060    4.0770    0.6660 n         1 MOL     -0.571043
     42 C13        -4.3550    4.5160   -0.4850 c3        1 MOL      0.304212
     43 C14        -5.5650    3.6410   -0.8920 c         1 MOL      0.363606
     44 O6         -6.0860    3.8300   -2.0230 o         1 MOL     -0.484868
     45 C15        -3.4150    4.7850   -1.6040 c3        1 MOL     -0.299084
     46 C16        -2.3440    3.7210   -1.9480 c         1 MOL      1.111342
     47 O7         -1.3580    4.0730   -2.6520 o         1 MOL     -0.874877
     48 O8         -2.3640    2.5300   -1.5760 o         1 MOL     -0.874877
     49 H21        -3.2840    3.1260    0.6780 hn        1 MOL      0.272052
     50 H22        -4.8090    5.4770   -0.2360 h1        1 MOL      0.064005
     51 H23        -2.9630    5.7640   -1.4650 hc        1 MOL      0.042598
     52 H24        -4.0590    4.8630   -2.4680 hc        1 MOL      0.042598
     53 N5         -6.1580    2.7690   -0.0500 n         1 MOL     -0.377667
     54 C17        -7.5730    2.4500   -0.2200 c3        1 MOL     -0.032512
     55 C18        -7.8150    1.2290   -1.1200 c         1 MOL      0.401891
     56 O9         -8.9110    1.2080   -1.6860 o         1 MOL     -0.578424
     57 H25        -5.7810    2.6220    0.8810 hn        1 MOL      0.278394
     58 H26        -8.0080    3.3780   -0.5980 h1        1 MOL      0.087846
     59 H27        -8.1250    2.2780    0.7000 h1        1 MOL      0.087846
     60 N6         -6.8020    0.4680   -1.4700 n         1 MOL     -0.066027
     61 C19        -6.8170   -0.5640   -2.5180 c3        1 MOL      0.024448
     62 C20        -6.7610   -1.9680   -1.8880 c         1 MOL      0.320055
     63 O10        -6.9960   -2.9590   -2.5920 o         1 MOL     -0.516423
     64 C21        -5.7360   -0.3520   -3.6260 c3        1 MOL     -0.200223
     65 C22        -4.2410   -0.3430   -3.1820 c         1 MOL      0.728645
     66 O11        -3.8390   -1.1750   -2.3000 o         1 MOL     -0.705232
     67 O12        -3.4750    0.5750   -3.5640 o         1 MOL     -0.705232
     68 H28        -5.9560    0.6670   -0.9490 hn        1 MOL      0.176588
     69 H29        -7.8170   -0.5580   -2.9620 h1        1 MOL      0.111933
     70 H30        -6.0660    0.5450   -4.1630 hc        1 MOL      0.063193
     71 H31        -5.8610   -1.1790   -4.3310 hc        1 MOL      0.063193
     72 N7         -6.5570   -2.0370   -0.5710 n         1 MOL     -0.130071
     73 C23        -6.5000   -3.2230    0.2580 c3        1 MOL     -0.116781
     74 C24        -5.3850   -4.1960   -0.1180 c         1 MOL      0.500928
     75 O13        -5.4720   -5.4050    0.0450 o         1 MOL     -0.574040
     76 H32        -6.3470   -1.1160   -0.2280 hn        1 MOL      0.092989
     77 H33        -7.4350   -3.7640    0.1790 h1        1 MOL      0.086438
     78 H34        -6.2860   -3.0360    1.3130 h1        1 MOL      0.086438
     79 N8         -4.2150   -3.7290   -0.5560 n         1 MOL     -0.089177
     80 C25        -2.8660   -4.4020   -0.7030 c3        1 MOL     -0.507951
     81 C26        -1.7720   -3.5520   -0.1480 c         1 MOL      0.853571
     82 O14        -1.8740   -2.3540   -0.1600 o         1 MOL     -0.723852
     83 C27        -2.5010   -4.7210   -2.1820 c3        1 MOL      0.565735
     84 C28        -3.4530   -5.7030   -2.8950 c3        1 MOL     -0.375291
     85 O15        -2.4450   -3.5500   -2.9950 oh        1 MOL     -0.708462
     86 H35        -4.1760   -2.7380   -0.7310 hn        1 MOL      0.153857
     87 H36        -2.9090   -5.3730   -0.1990 h1        1 MOL      0.156096
     88 H37        -1.4970   -5.1270   -2.1430 h1        1 MOL     -0.032738
     89 H38        -3.1360   -2.9120   -2.7770 ho        1 MOL      0.425201
     90 H39        -4.4290   -5.4870   -2.4640 hc        1 MOL      0.092626
     91 H40        -3.5020   -5.5960   -3.9740 hc        1 MOL      0.092626
     92 H41        -3.0890   -6.7090   -2.6560 hc        1 MOL      0.092626
     93 N9         -0.6830   -4.2620    0.3000 n         1 MOL     -0.563984
     94 C29         0.5480   -3.7640    1.0120 c3        1 MOL     -0.003431
     95 C30         1.7580   -4.0740    0.0010 c         1 MOL      0.484173
     96 O16         2.0280   -5.1900   -0.5140 o         1 MOL     -0.510559
     97 C31         0.6760   -4.3200    2.4830 c3        1 MOL     -0.015745
     98 C32        -0.4580   -3.7370    3.3520 c3        1 MOL      0.067511
     99 C33         2.0000   -3.8750    3.0720 c3        1 MOL     -0.516047
    100 C34        -0.4020   -4.1870    4.8480 c3        1 MOL     -0.063217
    101 H42        -0.7840   -5.2670    0.3720 hn        1 MOL      0.292047
    102 H43         0.4060   -2.6870    1.1030 h1        1 MOL      0.138909
    103 H44         0.5870   -5.4020    2.4570 hc        1 MOL      0.062730
    104 H45        -1.4430   -4.0250    2.9770 hc        1 MOL      0.017227
    105 H46        -0.4920   -2.6540    3.3780 hc        1 MOL      0.017227
    106 H47         2.9110   -4.1740    2.5560 hc        1 MOL      0.129287
    107 H48         2.0370   -2.7970    3.2690 hc        1 MOL      0.129287
    108 H49         1.9390   -4.3220    4.0720 hc        1 MOL      0.129287
    109 H50        -0.4540   -5.2600    5.0580 hc        1 MOL      0.020404
    110 H51         0.3880   -3.7310    5.4300 hc        1 MOL      0.020404
    111 H52        -1.2940   -3.8290    5.3490 hc        1 MOL      0.020404
    112 N10         2.5060   -2.9420   -0.2550 n         1 MOL     -0.389446
    113 C35         3.4950   -2.8920   -1.3500 c3        1 MOL     -0.054396
    114 C36         4.8490   -2.4210   -0.7850 c         1 MOL      0.336026
    115 O17         5.0180   -1.9390    0.3410 o         1 MOL     -0.326316
    116 C37         3.0220   -2.1090   -2.6040 c3        1 MOL      0.196243
    117 C38         1.9290   -2.9690   -3.3020 c3        1 MOL     -0.459801
    118 O18         2.4790   -0.8480   -2.3710 oh        1 MOL     -0.577535
    119 H53         2.2820   -2.0400    0.1270 hn        1 MOL      0.543750
    120 H54         3.7040   -3.8930   -1.7290 h1        1 MOL      0.087957
    121 H55         3.9030   -1.9410   -3.2260 h1        1 MOL      0.025723
    122 H56         1.7620   -0.9260   -1.7380 ho        1 MOL      0.347308
    123 H57         1.8590   -2.8080   -4.3780 hc        1 MOL      0.140934
    124 H58         2.1820   -4.0200   -3.2740 hc        1 MOL      0.140934
    125 H59         1.0240   -2.7160   -2.7610 hc        1 MOL      0.140934
    126 N11         5.9660   -2.5190   -1.5370 n         1 MOL     -0.265496
    127 C39         7.3630   -2.0820   -1.0610 c3        1 MOL     -0.257893
    128 C40         7.4230   -0.7660   -0.3130 c         1 MOL      0.468716
    129 O19         8.2070   -0.5950    0.6920 o         1 MOL     -0.523449
    130 C41         8.5060   -2.2530   -2.1450 c3        1 MOL      0.263665
    131 C42         8.6990   -3.6690   -2.6330 c3        1 MOL     -0.224664
    132 O20         8.3090   -1.3850   -3.2000 oh        1 MOL     -0.591668
    133 H60         5.9570   -2.8210   -2.4970 hn        1 MOL      0.268145
    134 H61         7.5420   -2.8850   -0.3450 h1        1 MOL      0.170230
    135 H62         9.4430   -1.9340   -1.6980 h1        1 MOL      0.037225
    136 H63         9.0970   -1.4770   -3.7490 ho        1 MOL      0.391439
    137 H64         7.7550   -4.1760   -2.8060 hc        1 MOL      0.074181
    138 H65         9.2110   -3.6940   -3.5890 hc        1 MOL      0.074181
    139 H66         9.3270   -4.2710   -1.9900 hc        1 MOL      0.074181
    140 N12         6.6410    0.3100   -0.5980 n         1 MOL     -0.337346
    141 C43         6.5090    1.5780    0.1160 c3        1 MOL     -0.014563
    142 C44         5.4200    1.6570    1.2380 c         1 MOL      0.429708
    143 O21         5.1470    2.7470    1.8000 o         1 MOL     -0.536765
    144 C45         6.3730    2.6970   -0.8810 c3        1 MOL     -0.342179
    145 C46         7.6410    2.9510   -1.7110 c3        1 MOL      0.209409
    146 C47         7.6930    4.4450   -2.2570 c3        1 MOL     -0.096542
    147 C48         8.8900    4.6800   -3.1940 c3        1 MOL     -0.059745
    148 N13        10.1580    4.5100   -2.4280 n4        1 MOL     -0.307337
    149 H67         6.1310    0.3370   -1.4760 hn        1 MOL      0.280717
    150 H68         7.4580    1.6410    0.6450 h1        1 MOL      0.113717
    151 H69         6.2370    3.6220   -0.3200 hc        1 MOL      0.098266
    152 H70         5.5310    2.5790   -1.5670 hc        1 MOL      0.098266
    153 H71         7.7630    2.1630   -2.4490 hc        1 MOL     -0.017690
    154 H72         8.4430    2.8570   -0.9740 hc        1 MOL     -0.017690
    155 H73         7.8560    5.1660   -1.4540 hc        1 MOL      0.075634
    156 H74         6.7760    4.6800   -2.7900 hc        1 MOL      0.075634
    157 H75         8.7290    5.6460   -3.6700 hx        1 MOL      0.113464
    158 H76         8.8830    3.8980   -3.9540 hx        1 MOL      0.113464
    159 H77        10.3230    3.5610   -2.1120 hn        1 MOL      0.317819
    160 H78        11.0030    4.8320   -2.8800 hn        1 MOL      0.317819
    161 H79        10.2020    5.0860   -1.6000 hn        1 MOL      0.317819
    162 N14         4.8670    0.5110    1.5790 n         1 MOL     -0.176163
    163 C49         3.8160    0.3080    2.6310 c3        1 MOL     -0.126541
    164 C50         4.2120   -0.6960    3.7600 c         1 MOL      0.486209
    165 O22         3.7100   -0.6050    4.8720 o         1 MOL     -0.491032
    166 C51         2.5730   -0.2210    1.9630 c3        1 MOL      0.345836
    167 C52         2.0700    0.8200    0.9870 c3        1 MOL      0.070254
    168 C53         0.7760    0.3180    0.3460 c         1 MOL      0.431996
    169 O23         0.7380   -0.6970   -0.4160 o         1 MOL     -0.614325
    170 O24        -0.3440    0.9570    0.6230 o         1 MOL     -0.614325
    171 H80         5.2450   -0.3560    1.2260 hn        1 MOL      0.123387
    172 H81         3.5380    1.2290    3.1490 h1        1 MOL      0.138774
    173 H82         1.8400   -0.5130    2.7140 hc        1 MOL     -0.094403
    174 H83         2.8370   -1.1430    1.4480 hc        1 MOL     -0.094403
    175 H84         2.7950    1.0230    0.2050 hc        1 MOL     -0.012476
    176 H85         1.9480    1.7840    1.4840 hc        1 MOL     -0.012476
    177 N15         5.0850   -1.6870    3.5260 n         1 MOL     -0.363537
    178 C54         5.3630   -2.8800    4.3660 c3        1 MOL     -0.431432
    179 H86         6.4350   -3.0790    4.3690 h1        1 MOL      0.173635
    180 H87         5.0260   -2.6930    5.3860 h1        1 MOL      0.173635
    181 H88         4.8350   -3.7430    3.9600 h1        1 MOL      0.173635
    182 H89         5.3050   -1.8440    2.5440 hn        1 MOL      0.278992
    183 Ca1        -1.7290    0.0540   -1.3710 Ca        1 MOL      1.776309
    184 O25         0.1180    1.8620   -2.2980 oh        1 MOL     -0.860367
    185 H90         0.2420    2.4320   -3.0520 ho        1 MOL      0.418205
    186 H91        -0.5130    2.3270   -1.7480 ho        1 MOL      0.418205
    187 O26        -0.7040   -0.5730   -3.8450 oh        1 MOL     -0.860367
    188 H92        -1.3150   -0.2400   -4.4950 ho        1 MOL      0.418205
    189 H93         0.1560   -0.4880   -4.2550 ho        1 MOL      0.418205
@<TRIPOS>BOND
     1    1    2 1   
     2    1    4 1   
     3    1    5 1   
     4    1    6 1   
     5    2    3 2   
     6    2    7 1   
     7    7    8 1   
     8    7   15 1   
     9    8    9 1   
    10    8   11 1   
    11    8   16 1   
    12    9   10 2   
    13    9   19 1   
    14   11   12 1   
    15   11   17 1   
    16   11   18 1   
    17   12   13 1   
    18   12   14 1   
    19   19   20 1   
    20   19   28 1   
    21   20   21 1   
    22   20   23 1   
    23   20   29 1   
    24   21   22 2   
    25   21   41 1   
    26   23   24 1   
    27   23   30 1   
    28   23   31 1   
    29   24   25 1   
    30   24   32 1   
    31   24   33 1   
    32   25   26 1   
    33   25   34 1   
    34   25   35 1   
    35   26   27 1   
    36   26   36 1   
    37   26   37 1   
    38   27   38 1   
    39   27   39 1   
    40   27   40 1   
    41   41   42 1   
    42   41   49 1   
    43   42   43 1   
    44   42   45 1   
    45   42   50 1   
    46   43   44 2   
    47   43   53 1   
    48   45   46 1   
    49   45   51 1   
    50   45   52 1   
    51   46   47 1   
    52   46   48 1   
    53   53   54 1   
    54   53   57 1   
    55   54   55 1   
    56   54   58 1   
    57   54   59 1   
    58   55   56 2   
    59   55   60 1   
    60   60   61 1   
    61   60   68 1   
    62   61   62 1   
    63   61   64 1   
    64   61   69 1   
    65   62   63 2   
    66   62   72 1   
    67   64   65 1   
    68   64   70 1   
    69   64   71 1   
    70   65   66 1   
    71   65   67 1   
    72   72   73 1   
    73   72   76 1   
    74   73   74 1   
    75   73   77 1   
    76   73   78 1   
    77   74   75 2   
    78   74   79 1   
    79   79   80 1   
    80   79   86 1   
    81   80   81 1   
    82   80   83 1   
    83   80   87 1   
    84   81   82 2   
    85   81   93 1   
    86   83   84 1   
    87   83   85 1   
    88   83   88 1   
    89   84   90 1   
    90   84   91 1   
    91   84   92 1   
    92   85   89 1   
    93   93   94 1   
    94   93  101 1   
    95   94   95 1   
    96   94   97 1   
    97   94  102 1   
    98   95   96 2   
    99   95  112 1   
   100   97   98 1   
   101   97   99 1   
   102   97  103 1   
   103   98  100 1   
   104   98  104 1   
   105   98  105 1   
   106   99  106 1   
   107   99  107 1   
   108   99  108 1   
   109  100  109 1   
   110  100  110 1   
   111  100  111 1   
   112  112  113 1   
   113  112  119 1   
   114  113  114 1   
   115  113  116 1   
   116  113  120 1   
   117  114  115 2   
   118  114  126 1   
   119  116  117 1   
   120  116  118 1   
   121  116  121 1   
   122  117  123 1   
   123  117  124 1   
   124  117  125 1   
   125  118  122 1   
   126  126  127 1   
   127  126  133 1   
   128  127  128 1   
   129  127  130 1   
   130  127  134 1   
   131  128  129 2   
   132  128  140 1   
   133  130  131 1   
   134  130  132 1   
   135  130  135 1   
   136  131  137 1   
   137  131  138 1   
   138  131  139 1   
   139  132  136 1   
   140  140  141 1   
   141  140  149 1   
   142  141  142 1   
   143  141  144 1   
   144  141  150 1   
   145  142  143 2   
   146  142  162 1   
   147  144  145 1   
   148  144  151 1   
   149  144  152 1   
   150  145  146 1   
   151  145  153 1   
   152  145  154 1   
   153  146  147 1   
   154  146  155 1   
   155  146  156 1   
   156  147  148 1   
   157  147  157 1   
   158  147  158 1   
   159  148  159 1   
   160  148  160 1   
   161  148  161 1   
   162  162  163 1   
   163  162  171 1   
   164  163  164 1   
   165  163  166 1   
   166  163  172 1   
   167  164  165 2   
   168  164  177 1   
   169  166  167 1   
   170  166  173 1   
   171  166  174 1   
   172  167  168 1   
   173  167  175 1   
   174  167  176 1   
   175  168  169 1   
   176  168  170 1   
   177  177  178 1   
   178  177  182 1   
   179  178  179 1   
   180  178  180 1   
   181  178  181 1   
   182  184  185 1   
   183  184  186 1   
   184  187  188 1   
   185  187  189 1   
@<TRIPOS>SUBSTRUCTURE
     1 MOL         1 TEMP              0 ****  ****    0 ROOT
