@<TRIPOS>MOLECULE
MOL
  175   173     1     0     0
SMALL
resp


@<TRIPOS>ATOM
      1 C1         -0.3580   -4.2010    5.3040 c3        1 MOL     -0.354127
      2 C2          0.2740   -4.2060    3.8990 c         1 MOL      0.729463
      3 O1         -0.3980   -4.2680    2.8560 o         1 MOL     -0.582858
      4 H1          0.3390   -4.6400    6.0170 hc        1 MOL      0.087098
      5 H2         -0.5810   -3.1750    5.5990 hc        1 MOL      0.087098
      6 H3         -1.2790   -4.7840    5.2910 hc        1 MOL      0.087098
      7 N1          1.5850   -3.9770    3.8190 n         1 MOL     -0.636373
      8 C3          2.2810   -3.4940    2.6810 c3        1 MOL      0.118725
      9 C4          2.6070   -4.6360    1.8280 c         1 MOL      0.566914
     10 O2          3.1720   -5.7180    2.1910 o         1 MOL     -0.608146
     11 C5          3.5400   -2.7210    3.0980 c3        1 MOL     -0.432468
     12 C6          4.3260   -2.1170    2.0050 c         1 MOL      0.909100
     13 O3          5.4950   -1.6830    2.3060 o         1 MOL     -0.713407
     14 O4          3.7650   -1.9050    0.9250 o         1 MOL     -0.713407
     15 H4          2.1140   -3.7970    4.6690 hn        1 MOL      0.324009
     16 H5          1.5720   -2.8400    2.1870 h1        1 MOL      0.180172
     17 H6          4.1360   -3.3840    3.7210 hc        1 MOL      0.089078
     18 H7          3.2770   -1.8930    3.7600 hc        1 MOL      0.089078
     19 N2          2.3470   -4.5070    0.5610 n         1 MOL     -0.374894
     20 C7          2.5860   -5.4710   -0.4410 c3        1 MOL      0.279684
     21 C8          3.4060   -4.8770   -1.6780 c         1 MOL      0.632376
     22 O5          3.3170   -5.5140   -2.7360 o         1 MOL     -0.597600
     23 C9          1.3080   -6.2350   -0.8020 c3        1 MOL     -0.360649
     24 H8          1.9000   -3.6500    0.2770 hn        1 MOL      0.223158
     25 H9          3.4060   -6.1390   -0.1500 h1        1 MOL     -0.001303
     26 H10         0.5630   -5.4850   -1.0470 hc        1 MOL      0.086563
     27 H11         1.5090   -6.9270   -1.6200 hc        1 MOL      0.086563
     28 H12         1.0250   -6.8590    0.0490 hc        1 MOL      0.086563
     29 N3          4.1670   -3.7910   -1.5110 n         1 MOL     -0.654529
     30 C10         5.0360   -3.2840   -2.5580 c3        1 MOL      0.190833
     31 C11         6.1860   -2.4640   -2.0250 c         1 MOL      0.452853
     32 O6          6.9830   -2.1410   -2.8950 o         1 MOL     -0.562997
     33 C12         4.1240   -2.4810   -3.5680 c3        1 MOL     -0.212530
     34 C13         3.2210   -1.4160   -2.9130 c         1 MOL      0.735450
     35 O7          2.2240   -1.0130   -3.4770 o         1 MOL     -0.677042
     36 O8          3.5810   -0.9220   -1.7760 o         1 MOL     -0.677042
     37 H13         3.9740   -3.1900   -0.7180 hn        1 MOL      0.285197
     38 H14         5.5090   -4.0630   -3.1650 h1        1 MOL      0.057495
     39 H15         3.5160   -3.2000   -4.1240 hc        1 MOL      0.054379
     40 H16         4.8050   -2.0310   -4.2800 hc        1 MOL      0.054379
     41 N4          6.2680   -2.1050   -0.7140 n         1 MOL     -0.299960
     42 C14         7.3920   -1.2520   -0.2160 c3        1 MOL     -0.238240
     43 C15         7.2310    0.2350   -0.5280 c         1 MOL      0.573006
     44 O9          7.9820    1.0240    0.0090 o         1 MOL     -0.619129
     45 H17         5.4520   -2.1990   -0.1360 hn        1 MOL      0.176425
     46 H18         8.2940   -1.6420   -0.6910 h1        1 MOL      0.133201
     47 H19         7.5600   -1.4550    0.8460 h1        1 MOL      0.133201
     48 N5          6.2950    0.5580   -1.4180 n         1 MOL     -0.270897
     49 C16         6.2210    1.8640   -2.1370 c3        1 MOL      0.094500
     50 C17         6.2310    3.2060   -1.3860 c         1 MOL      0.440600
     51 O10         6.3410    4.2470   -2.0130 o         1 MOL     -0.540854
     52 C18         4.9830    1.7940   -3.0450 c3        1 MOL     -0.152114
     53 C19         3.6270    2.0530   -2.4570 c         1 MOL      0.714320
     54 N6          2.6640    2.1930   -3.2710 n         1 MOL     -0.692441
     55 O11         3.4670    2.0750   -1.2430 o         1 MOL     -0.740633
     56 H20         5.5650   -0.0980   -1.6660 hn        1 MOL      0.149715
     57 H21         7.1170    1.9440   -2.7580 h1        1 MOL      0.051758
     58 H22         4.9410    0.9140   -3.6800 hc        1 MOL      0.037247
     59 H23         5.1110    2.6360   -3.7330 hc        1 MOL      0.037247
     60 H24         2.6620    2.0060   -4.2730 hn        1 MOL      0.366462
     61 H25         1.7690    2.3080   -2.8340 hn        1 MOL      0.366462
     62 N7          6.0740    3.1480   -0.0690 n         1 MOL     -0.123047
     63 C20         6.0070    4.3280    0.8250 c3        1 MOL     -0.351815
     64 C21         4.6820    4.9530    1.1930 c         1 MOL      0.591644
     65 O12         4.6080    5.9240    1.9150 o         1 MOL     -0.584232
     66 H26         5.7320    2.2920    0.3470 hn        1 MOL      0.211424
     67 H27         6.5950    5.1370    0.3970 h1        1 MOL      0.132405
     68 H28         6.4490    4.0480    1.7790 h1        1 MOL      0.132405
     69 N8          3.6070    4.2560    0.7910 n         1 MOL     -0.076533
     70 C22         2.2570    4.6940    1.0760 c3        1 MOL     -0.483991
     71 C23         1.2490    3.6130    1.3990 c         1 MOL      0.782469
     72 O13         1.4440    2.4870    0.9590 o         1 MOL     -0.582664
     73 C24         1.7280    5.3530   -0.2200 c3        1 MOL      0.596417
     74 C25         2.3450    6.6420   -0.6610 c3        1 MOL     -0.471695
     75 O14         1.7780    4.4420   -1.2840 oh        1 MOL     -0.679259
     76 H29         3.7940    3.3830    0.3140 hn        1 MOL      0.125334
     77 H30         2.2370    5.3970    1.9150 h1        1 MOL      0.150393
     78 H31         0.6590    5.5340   -0.0790 h1        1 MOL     -0.000943
     79 H32         2.4490    3.7590   -1.1650 ho        1 MOL      0.415741
     80 H33         2.0290    7.4150    0.0430 hc        1 MOL      0.104515
     81 H34         3.4220    6.5100   -0.7460 hc        1 MOL      0.104515
     82 H35         1.9410    6.9380   -1.6330 hc        1 MOL      0.104515
     83 N9          0.1260    3.9130    2.0950 n         1 MOL     -0.708689
     84 C26        -1.0310    2.9920    2.1810 c3        1 MOL     -0.081890
     85 C27        -1.8070    3.1260    0.9070 c         1 MOL      0.536891
     86 O15        -2.2070    4.2330    0.4690 o         1 MOL     -0.582216
     87 C28        -1.9810    3.3080    3.3230 c3        1 MOL      0.286537
     88 C29        -1.3660    3.7670    4.6470 c3        1 MOL      0.081308
     89 C30        -2.8170    2.0430    3.6860 c3        1 MOL     -0.458706
     90 C31        -2.2880    4.1140    5.8180 c3        1 MOL     -0.223997
     91 H36        -0.0380    4.8940    2.2680 hn        1 MOL      0.331988
     92 H37        -0.6600    1.9740    2.2480 h1        1 MOL      0.145055
     93 H38        -2.7010    4.0360    2.9510 hc        1 MOL     -0.036178
     94 H39        -0.7430    4.6440    4.4630 hc        1 MOL     -0.005633
     95 H40        -0.7390    2.9400    4.9770 hc        1 MOL     -0.005633
     96 H41        -3.1470    1.4180    2.8560 hc        1 MOL      0.098244
     97 H42        -2.1860    1.4420    4.3450 hc        1 MOL      0.098244
     98 H43        -3.7590    2.3240    4.1420 hc        1 MOL      0.098244
     99 H44        -1.6740    4.5210    6.6250 hc        1 MOL      0.048478
    100 H45        -3.0620    4.8110    5.5040 hc        1 MOL      0.048478
    101 H46        -2.7570    3.2220    6.2380 hc        1 MOL      0.048478
    102 N10        -1.9530    2.0260    0.1400 n         1 MOL     -0.194820
    103 C32        -2.6870    1.8470   -1.1660 c3        1 MOL     -0.125767
    104 C33        -4.0210    1.2170   -0.9740 c         1 MOL      0.515205
    105 O16        -4.2560    0.6030    0.0460 o         1 MOL     -0.380591
    106 C34        -1.8170    1.0210   -2.1650 c3        1 MOL     -0.211921
    107 C35        -0.3950    1.4490   -2.2240 c         1 MOL      0.868507
    108 O17        -0.1210    2.1920   -3.2000 o         1 MOL     -0.717861
    109 O18         0.4600    0.9740   -1.4600 o         1 MOL     -0.717861
    110 H47        -1.4970    1.1820    0.4420 hn        1 MOL      0.202850
    111 H48        -2.8230    2.8290   -1.6220 h1        1 MOL      0.111545
    112 H49        -2.1600    0.9910   -3.2020 hc        1 MOL      0.043312
    113 H50        -1.8100   -0.0020   -1.7690 hc        1 MOL      0.043312
    114 N11        -4.9810    1.5100   -1.8210 n         1 MOL     -0.576116
    115 C36        -6.4080    1.2130   -1.5790 c3        1 MOL      0.305094
    116 C37        -6.6860   -0.3420   -1.3540 c         1 MOL      0.333168
    117 O19        -7.1880   -0.5760   -0.2440 o         1 MOL     -0.497033
    118 C38        -7.3980    1.8260   -2.5470 c3        1 MOL     -0.227712
    119 C39        -8.8440    1.7890   -1.9750 ca        1 MOL      0.049668
    120 C40        -9.7480    0.7640   -2.4460 ca        1 MOL     -0.150634
    121 C41        -9.3060    2.7220   -1.0400 ca        1 MOL     -0.150634
    122 C42       -11.1030    0.7000   -1.9140 ca        1 MOL     -0.125832
    123 C43       -10.5850    2.6130   -0.4870 ca        1 MOL     -0.125832
    124 C44       -11.4840    1.6630   -0.9080 ca        1 MOL     -0.084474
    125 H51        -4.7710    1.9420   -2.7170 hn        1 MOL      0.299297
    126 H52        -6.4900    1.6360   -0.5800 h1        1 MOL      0.071447
    127 H53        -7.3510    1.3660   -3.5310 hc        1 MOL      0.080161
    128 H54        -7.2060    2.8870   -2.7260 hc        1 MOL      0.080161
    129 H55        -9.4330    0.1360   -3.2590 ha        1 MOL      0.120132
    130 H56        -8.7070    3.5790   -0.7640 ha        1 MOL      0.120132
    131 H57       -11.8020   -0.0310   -2.3000 ha        1 MOL      0.115618
    132 H58       -10.8420    3.3390    0.2750 ha        1 MOL      0.115618
    133 H59       -12.5000    1.7300   -0.5730 ha        1 MOL      0.091933
    134 N12        -6.0590   -1.2960   -2.0590 n         1 MOL     -0.067220
    135 C45        -6.1240   -2.7590   -1.7880 c3        1 MOL     -0.075009
    136 C46        -5.4800   -3.1130   -0.3780 c         1 MOL      0.331115
    137 O20        -5.8890   -4.1270    0.1590 o         1 MOL     -0.500425
    138 C47        -5.2840   -3.4260   -2.8470 c3        1 MOL      0.002943
    139 C48        -5.5380   -2.5540   -4.0350 c3        1 MOL      0.041018
    140 C49        -5.4390   -1.1610   -3.4060 c3        1 MOL     -0.133712
    141 H60        -7.1420   -3.1080   -1.9310 h1        1 MOL      0.090089
    142 H61        -4.2290   -3.4610   -2.5760 hc        1 MOL      0.031429
    143 H62        -5.5760   -4.4410   -3.1440 hc        1 MOL      0.031429
    144 H63        -4.9140   -2.7870   -4.9020 hc        1 MOL      0.011686
    145 H64        -6.5510   -2.6020   -4.4490 hc        1 MOL      0.011686
    146 H65        -4.3670   -0.9680   -3.3120 h1        1 MOL      0.062965
    147 H66        -5.8750   -0.3870   -4.0340 h1        1 MOL      0.062965
    148 N13        -4.5630   -2.2930    0.1120 n         1 MOL     -0.104714
    149 C50        -4.0780   -2.5350    1.4100 c3        1 MOL     -0.038502
    150 C51        -4.8970   -1.9130    2.5940 c         1 MOL      0.373236
    151 O21        -4.9950   -2.5350    3.7130 o         1 MOL     -0.546456
    152 C52        -2.7320   -1.9480    1.3580 c3        1 MOL     -0.014806
    153 C53        -1.6560   -2.4490    0.3430 c3        1 MOL      0.014189
    154 C54        -0.4070   -1.6180    0.4750 c         1 MOL      0.599023
    155 O22         0.6800   -1.8170   -0.1250 o         1 MOL     -0.753624
    156 O23        -0.3070   -0.7050    1.3180 o         1 MOL     -0.753624
    157 H67        -4.2090   -1.5160   -0.4180 hn        1 MOL      0.210560
    158 H68        -3.8380   -3.5810    1.5950 h1        1 MOL      0.092637
    159 H69        -2.3400   -2.2310    2.3270 hc        1 MOL      0.014344
    160 H70        -2.7710   -0.8650    1.2460 hc        1 MOL      0.014344
    161 H71        -2.0750   -2.4090   -0.6630 hc        1 MOL      0.020159
    162 H72        -1.3730   -3.4990    0.3760 hc        1 MOL      0.020159
    163 N14        -5.6120   -0.8110    2.2750 n         1 MOL      0.008980
    164 C55        -6.7080   -0.2070    3.1320 c3        1 MOL     -0.335030
    165 H73        -6.5280   -0.4530    4.1780 h1        1 MOL      0.119524
    166 H74        -6.7100    0.8760    3.0090 h1        1 MOL      0.119524
    167 H75        -7.6740   -0.6090    2.8250 h1        1 MOL      0.119524
    168 H76        -5.4380   -0.4380    1.3560 hn        1 MOL      0.064122
    169 Ca1         2.2390    0.0500    0.1110 Ca        1 MOL      1.795695
    170 O24         1.6940   -0.0500    2.7830 oh        1 MOL     -0.844750
    171 H77         0.8140   -0.2560    2.4770 ho        1 MOL      0.399693
    172 H78         1.6680   -0.1980    3.7240 ho        1 MOL      0.399693
    173 O25         4.5770    0.7870    1.8300 oh        1 MOL     -0.844750
    174 H79         5.0790    1.3720    2.3960 ho        1 MOL      0.399693
    175 H80         4.8820   -0.0900    2.0580 ho        1 MOL      0.399693
@<TRIPOS>BOND
     1    1    2 1   
     2    1    4 1   
     3    1    5 1   
     4    1    6 1   
     5    2    3 2   
     6    2    7 1   
     7    7    8 1   
     8    7   15 1   
     9    8    9 1   
    10    8   11 1   
    11    8   16 1   
    12    9   10 2   
    13    9   19 1   
    14   11   12 1   
    15   11   17 1   
    16   11   18 1   
    17   12   13 1   
    18   12   14 1   
    19   19   20 1   
    20   19   24 1   
    21   20   21 1   
    22   20   23 1   
    23   20   25 1   
    24   21   22 2   
    25   21   29 1   
    26   23   26 1   
    27   23   27 1   
    28   23   28 1   
    29   29   30 1   
    30   29   37 1   
    31   30   31 1   
    32   30   33 1   
    33   30   38 1   
    34   31   32 2   
    35   31   41 1   
    36   33   34 1   
    37   33   39 1   
    38   33   40 1   
    39   34   35 1   
    40   34   36 1   
    41   41   42 1   
    42   41   45 1   
    43   42   43 1   
    44   42   46 1   
    45   42   47 1   
    46   43   44 2   
    47   43   48 1   
    48   48   49 1   
    49   48   56 1   
    50   49   50 1   
    51   49   52 1   
    52   49   57 1   
    53   50   51 2   
    54   50   62 1   
    55   52   53 1   
    56   52   58 1   
    57   52   59 1   
    58   53   54 1   
    59   53   55 2   
    60   54   60 1   
    61   54   61 1   
    62   62   63 1   
    63   62   66 1   
    64   63   64 1   
    65   63   67 1   
    66   63   68 1   
    67   64   65 2   
    68   64   69 1   
    69   69   70 1   
    70   69   76 1   
    71   70   71 1   
    72   70   73 1   
    73   70   77 1   
    74   71   72 2   
    75   71   83 1   
    76   73   74 1   
    77   73   75 1   
    78   73   78 1   
    79   74   80 1   
    80   74   81 1   
    81   74   82 1   
    82   75   79 1   
    83   83   84 1   
    84   83   91 1   
    85   84   85 1   
    86   84   87 1   
    87   84   92 1   
    88   85   86 2   
    89   85  102 1   
    90   87   88 1   
    91   87   89 1   
    92   87   93 1   
    93   88   90 1   
    94   88   94 1   
    95   88   95 1   
    96   89   96 1   
    97   89   97 1   
    98   89   98 1   
    99   90   99 1   
   100   90  100 1   
   101   90  101 1   
   102  102  103 1   
   103  102  110 1   
   104  103  104 1   
   105  103  106 1   
   106  103  111 1   
   107  104  105 2   
   108  104  114 1   
   109  106  107 1   
   110  106  112 1   
   111  106  113 1   
   112  107  108 1   
   113  107  109 1   
   114  114  115 1   
   115  114  125 1   
   116  115  116 1   
   117  115  118 1   
   118  115  126 1   
   119  116  117 2   
   120  116  134 1   
   121  118  119 1   
   122  118  127 1   
   123  118  128 1   
   124  119  120 ar  
   125  119  121 ar  
   126  120  122 ar  
   127  120  129 1   
   128  121  123 ar  
   129  121  130 1   
   130  122  124 ar  
   131  122  131 1   
   132  123  124 ar  
   133  123  132 1   
   134  124  133 1   
   135  134  135 1   
   136  134  140 1   
   137  135  136 1   
   138  135  138 1   
   139  135  141 1   
   140  136  137 2   
   141  136  148 1   
   142  138  139 1   
   143  138  142 1   
   144  138  143 1   
   145  139  140 1   
   146  139  144 1   
   147  139  145 1   
   148  140  146 1   
   149  140  147 1   
   150  148  149 1   
   151  148  157 1   
   152  149  150 1   
   153  149  152 1   
   154  149  158 1   
   155  150  151 2   
   156  150  163 1   
   157  152  153 1   
   158  152  159 1   
   159  152  160 1   
   160  153  154 1   
   161  153  161 1   
   162  153  162 1   
   163  154  155 1   
   164  154  156 1   
   165  163  164 1   
   166  163  168 1   
   167  164  165 1   
   168  164  166 1   
   169  164  167 1   
   170  170  171 1   
   171  170  172 1   
   172  173  174 1   
   173  173  175 1   
@<TRIPOS>SUBSTRUCTURE
     1 MOL         1 TEMP              0 ****  ****    0 ROOT
