@<TRIPOS>MOLECULE
MOL
  189   185     1     0     0
SMALL
resp


@<TRIPOS>ATOM
      1 C1          0.8430   -4.6420    5.8650 c3        1 MOL     -0.417724
      2 C2          1.1730   -4.0250    4.4610 c         1 MOL      0.775769
      3 O1          1.3990   -2.8200    4.4470 o         1 MOL     -0.611175
      4 H1         -0.1160   -4.2590    6.2130 hc        1 MOL      0.106046
      5 H2          0.7920   -5.7280    5.7840 hc        1 MOL      0.106046
      6 H3          1.6220   -4.3670    6.5770 hc        1 MOL      0.106046
      7 N1          1.3160   -4.8110    3.3970 n         1 MOL     -0.664501
      8 C3          1.9220   -4.4090    2.0860 c3        1 MOL      0.406399
      9 C4          1.7600   -5.4620    0.9480 c         1 MOL      0.526490
     10 O2          1.8530   -6.6990    1.2090 o         1 MOL     -0.611708
     11 C5          3.3650   -4.0350    2.2910 c3        1 MOL     -0.339401
     12 C6          3.9890   -3.3790    1.0530 c         1 MOL      0.689662
     13 O3          5.1850   -3.5750    0.7700 o         1 MOL     -0.658484
     14 O4          3.3050   -2.7100    0.2190 o         1 MOL     -0.658484
     15 H4          0.8260   -5.6950    3.4280 hn        1 MOL      0.305092
     16 H5          1.3310   -3.5530    1.7630 h1        1 MOL      0.006920
     17 H6          3.9180   -4.9310    2.5650 hc        1 MOL      0.065729
     18 H7          3.3810   -3.2780    3.0740 hc        1 MOL      0.065729
     19 N2          1.5630   -4.9980   -0.3040 n         1 MOL     -0.018436
     20 C7          1.0330   -5.6230   -1.5550 c3        1 MOL     -0.394237
     21 C8          1.7820   -5.0210   -2.7660 c         1 MOL      0.755755
     22 O5          1.9210   -5.6390   -3.8000 o         1 MOL     -0.612062
     23 C9         -0.4700   -5.3090   -1.6910 c3        1 MOL      0.380433
     24 C10        -1.1920   -5.8440   -0.3750 c3        1 MOL     -0.253517
     25 C11        -1.0180   -5.9340   -2.9800 c3        1 MOL     -0.136478
     26 C12        -2.7060   -5.6230   -0.3270 c3        1 MOL      0.027931
     27 H8          1.5150   -3.9910   -0.2640 hn        1 MOL     -0.265241
     28 H9          1.2320   -6.6900   -1.5090 h1        1 MOL      0.148827
     29 H10        -0.7380   -4.2610   -1.7400 hc        1 MOL      0.000808
     30 H11        -0.7930   -5.2240    0.4290 hc        1 MOL      0.050010
     31 H12        -0.9870   -6.8950   -0.1950 hc        1 MOL      0.050010
     32 H13        -0.5150   -5.4550   -3.8220 hc        1 MOL      0.016329
     33 H14        -0.8710   -7.0140   -3.0250 hc        1 MOL      0.016329
     34 H15        -2.0860   -5.7900   -3.1460 hc        1 MOL      0.016329
     35 H16        -2.9840   -4.5730   -0.3670 hc        1 MOL      0.006604
     36 H17        -3.1750   -6.2370   -1.0910 hc        1 MOL      0.006604
     37 H18        -3.1450   -6.0360    0.5850 hc        1 MOL      0.006604
     38 N3          2.3810   -3.8190   -2.6260 n         1 MOL     -0.615215
     39 C13         3.0830   -3.1460   -3.7580 c3        1 MOL      0.053296
     40 C14         4.5280   -2.5580   -3.4680 c         1 MOL      0.409655
     41 O6          5.1870   -2.1540   -4.4400 o         1 MOL     -0.566250
     42 C15         2.1590   -2.0060   -4.2380 c3        1 MOL     -0.126965
     43 C16         1.9230   -0.8770   -3.1830 c         1 MOL      0.716740
     44 O7          2.7300   -0.7900   -2.2430 o         1 MOL     -0.725454
     45 O8          0.8390   -0.2020   -3.1810 o         1 MOL     -0.725454
     46 H19         2.2030   -3.2870   -1.7850 hn        1 MOL      0.490900
     47 H20         3.1470   -3.8060   -4.6240 h1        1 MOL      0.106049
     48 H21         1.1600   -2.3600   -4.4970 hc        1 MOL      0.031729
     49 H22         2.5800   -1.6200   -5.1620 hc        1 MOL      0.031729
     50 N4          5.0760   -2.7650   -2.2850 n         1 MOL     -0.118071
     51 C17         6.5050   -2.5900   -1.9980 c3        1 MOL     -0.372878
     52 C18         7.0380   -1.1520   -1.8040 c         1 MOL      0.589565
     53 O9          8.2200   -0.9390   -1.5120 o         1 MOL     -0.627307
     54 H23         4.4200   -2.8980   -1.5340 hn        1 MOL      0.153385
     55 H24         6.9410   -2.9320   -2.9370 h1        1 MOL      0.148070
     56 H25         6.7930   -3.0920   -1.0740 h1        1 MOL      0.148070
     57 N5          6.1830   -0.1640   -1.9460 n         1 MOL     -0.199593
     58 C19         6.5330    1.2010   -2.2770 c3        1 MOL      0.021690
     59 C20         6.8970    2.1070   -1.0540 c         1 MOL      0.403225
     60 O10         7.5260    3.1350   -1.1800 o         1 MOL     -0.531537
     61 C21         5.3910    1.8970   -3.0000 c3        1 MOL     -0.406437
     62 C22         4.0720    1.9840   -2.1030 c         1 MOL      0.855695
     63 O11         3.9960    1.4490   -1.0100 o         1 MOL     -0.713136
     64 O12         3.1140    2.6380   -2.5180 o         1 MOL     -0.713136
     65 H26         5.1850   -0.3310   -1.9100 hn        1 MOL      0.216872
     66 H27         7.4260    1.1420   -2.8980 h1        1 MOL      0.092727
     67 H28         5.1640    1.3440   -3.9100 hc        1 MOL      0.103252
     68 H29         5.7200    2.9240   -3.1840 hc        1 MOL      0.103252
     69 N6          6.6920    1.6890    0.1880 n         1 MOL     -0.183708
     70 C23         7.1130    2.4960    1.3490 c3        1 MOL     -0.282157
     71 C24         6.1100    3.6870    1.5210 c         1 MOL      0.511522
     72 O13         6.3250    4.6290    2.3200 o         1 MOL     -0.597941
     73 H30         6.2930    0.7800    0.3660 hn        1 MOL      0.223179
     74 H31         8.1420    2.8310    1.2140 h1        1 MOL      0.132271
     75 H32         7.0760    1.8620    2.2290 h1        1 MOL      0.132271
     76 N7          4.8560    3.4990    1.1190 n         1 MOL     -0.125500
     77 C25         3.6670    4.2490    1.5490 c3        1 MOL      0.013908
     78 C26         2.5570    3.2530    1.8940 c         1 MOL      0.279163
     79 O14         2.6930    2.0390    1.6540 o         1 MOL     -0.434899
     80 C27         3.1570    5.1460    0.4530 c3        1 MOL      0.058844
     81 C28         4.1700    6.3460    0.1480 c3        1 MOL     -0.321143
     82 C29         3.5400    7.4540   -0.6490 c         1 MOL      0.663013
     83 N8          3.5410    7.4170   -1.9640 n         1 MOL     -0.805086
     84 O15         3.0010    8.3920   -0.0110 o         1 MOL     -0.594813
     85 H33         4.7140    2.5880    0.7120 hn        1 MOL      0.086834
     86 H34         3.8960    4.9190    2.3830 h1        1 MOL      0.067715
     87 H35         2.2060    5.5720    0.7800 hc        1 MOL      0.041614
     88 H36         3.0590    4.5580   -0.4610 hc        1 MOL      0.041614
     89 H37         5.1020    5.9790   -0.2830 hc        1 MOL      0.099579
     90 H38         4.3890    6.7900    1.1140 hc        1 MOL      0.099579
     91 H39         3.8450    6.5400   -2.3550 hn        1 MOL      0.374538
     92 H40         3.1890    8.1680   -2.5410 hn        1 MOL      0.374538
     93 N9          1.4570    3.6610    2.5320 n         1 MOL     -0.287518
     94 C30         0.2610    2.8650    2.6830 c3        1 MOL     -0.001295
     95 C31        -0.7750    3.2990    1.6280 c         1 MOL      0.471056
     96 O16        -1.3340    4.4460    1.7290 o         1 MOL     -0.592769
     97 C32        -0.3190    3.1520    4.1600 c3        1 MOL      0.302223
     98 C33        -1.7010    2.5010    4.3350 c3        1 MOL     -0.241274
     99 C34         0.6400    2.6520    5.2430 c3        1 MOL     -0.241274
    100 H41         1.4710    4.6010    2.8840 hn        1 MOL      0.251648
    101 H42         0.4550    1.8100    2.4960 h1        1 MOL      0.049436
    102 H43        -0.3810    4.2360    4.2490 hc        1 MOL     -0.032747
    103 H44        -1.5870    1.4430    4.1290 hc        1 MOL      0.040543
    104 H45        -2.1320    2.6800    5.3250 hc        1 MOL      0.040543
    105 H46        -2.3710    3.0280    3.6590 hc        1 MOL      0.040543
    106 H47         1.4980    3.3120    5.3820 hc        1 MOL      0.040543
    107 H48         0.0670    2.7480    6.1700 hc        1 MOL      0.040543
    108 H49         0.9190    1.6200    5.0460 hc        1 MOL      0.040543
    109 N10        -1.0400    2.4510    0.6340 n         1 MOL     -0.302982
    110 C35        -2.2890    2.4750   -0.1060 c3        1 MOL      0.121031
    111 C36        -3.5060    2.1890    0.8150 c         1 MOL      0.061285
    112 O17        -3.4200    1.3460    1.7550 o         1 MOL     -0.198503
    113 C37        -2.3030    1.5640   -1.3500 c3        1 MOL     -0.256523
    114 C38        -3.3250    1.9430   -2.4500 c         1 MOL      0.760749
    115 N11        -3.0870    2.9890   -3.1590 n         1 MOL     -0.758003
    116 O18        -4.3870    1.3310   -2.5410 o         1 MOL     -0.660939
    117 H50        -0.5540    1.5660    0.6230 hn        1 MOL      0.210445
    118 H51        -2.3500    3.4800   -0.5280 h1        1 MOL      0.042317
    119 H52        -2.6860    0.5990   -1.0110 hc        1 MOL      0.116716
    120 H53        -1.3020    1.5220   -1.7940 hc        1 MOL      0.116716
    121 H54        -2.3470    3.6590   -3.0300 hn        1 MOL      0.339481
    122 H55        -3.7600    3.3160   -3.8340 hn        1 MOL      0.339481
    123 N12        -4.6770    2.6230    0.3670 n         1 MOL     -0.036376
    124 C39        -5.9760    2.3810    1.0220 c3        1 MOL      0.019153
    125 C40        -6.3290    0.8740    1.0670 c         1 MOL      0.365368
    126 O19        -7.0750    0.4010    1.9780 o         1 MOL     -0.558301
    127 C41        -7.0950    3.3430    0.3540 c3        1 MOL     -0.137992
    128 C42        -7.2600    3.2890   -1.1650 ca        1 MOL      0.139513
    129 C43        -6.7180    4.3540   -1.9580 ca        1 MOL     -0.221570
    130 C44        -7.8830    2.1870   -1.7610 ca        1 MOL     -0.221570
    131 C45        -6.9200    4.3140   -3.3560 ca        1 MOL     -0.243854
    132 C46        -8.0310    2.2180   -3.1510 ca        1 MOL     -0.243854
    133 C47        -7.6730    3.2830   -3.9460 ca        1 MOL      0.326500
    134 O20        -7.8070    3.2340   -5.3140 oh        1 MOL     -0.441488
    135 H56        -4.8100    3.2310   -0.4350 hn        1 MOL      0.083669
    136 H57        -5.9040    2.5040    2.1060 h1        1 MOL      0.043654
    137 H58        -6.9750    4.3910    0.6260 hc        1 MOL      0.044917
    138 H59        -8.0520    3.0540    0.7860 hc        1 MOL      0.044917
    139 H60        -6.3470    5.1650   -1.3480 ha        1 MOL      0.143341
    140 H61        -8.2600    1.3380   -1.1970 ha        1 MOL      0.143341
    141 H62        -6.5790    5.1110   -4.0160 ha        1 MOL      0.126934
    142 H63        -8.4690    1.3670   -3.6570 ha        1 MOL      0.126934
    143 H64        -7.5020    4.0150   -5.7730 ho        1 MOL      0.317615
    144 N13        -5.8580    0.0810    0.1020 n         1 MOL      0.011099
    145 C48        -6.0360   -1.3500    0.1650 c3        1 MOL     -0.718066
    146 C49        -5.3710   -1.9920    1.3400 c         1 MOL      0.731656
    147 O21        -5.9090   -2.9620    1.8700 o         1 MOL     -0.556977
    148 C50        -5.6950   -1.9890   -1.2200 c3        1 MOL      0.560888
    149 C51        -6.5480   -1.5050   -2.4070 c3        1 MOL     -0.506886
    150 C52        -7.9830   -2.1210   -2.4570 c         1 MOL      0.877407
    151 O22        -8.4750   -2.1630   -3.5880 o         1 MOL     -0.768585
    152 O23        -8.5500   -2.5790   -1.4400 o         1 MOL     -0.768585
    153 H65        -5.4310    0.5710   -0.6660 hn        1 MOL      0.551218
    154 H66        -7.0820   -1.5610    0.3960 h1        1 MOL      0.214107
    155 H67        -5.6520   -3.0670   -1.0660 hc        1 MOL     -0.132271
    156 H68        -4.6670   -1.7260   -1.4720 hc        1 MOL     -0.132271
    157 H69        -5.9800   -1.7710   -3.3000 hc        1 MOL      0.089508
    158 H70        -6.7270   -0.4420   -2.3600 hc        1 MOL      0.089508
    159 N14        -4.1920   -1.4880    1.6860 n         1 MOL     -0.290919
    160 C53        -3.3170   -2.0950    2.6880 c3        1 MOL     -0.176953
    161 C54        -3.8060   -1.4740    4.0200 c         1 MOL      0.487637
    162 O24        -3.8920   -2.1930    5.0110 o         1 MOL     -0.566853
    163 C55        -1.8830   -1.7050    2.2890 c3        1 MOL      0.100897
    164 C56        -1.5550   -2.1290    0.8630 c3        1 MOL      0.118968
    165 C57        -0.2470   -1.4590    0.4970 c         1 MOL      0.532988
    166 O25         0.5370   -2.1270   -0.2590 o         1 MOL     -0.587278
    167 O26        -0.1100   -0.2550    0.6800 o         1 MOL     -0.587278
    168 H71        -3.9300   -0.6450    1.1900 hn        1 MOL      0.062083
    169 H72        -3.4020   -3.1870    2.6860 h1        1 MOL      0.098670
    170 H73        -1.0850   -2.1420    2.8910 hc        1 MOL     -0.014383
    171 H74        -1.9010   -0.6250    2.4040 hc        1 MOL     -0.014383
    172 H75        -2.2810   -1.7540    0.1450 hc        1 MOL     -0.025902
    173 H76        -1.4430   -3.2090    0.7420 hc        1 MOL     -0.025902
    174 N15        -4.2140   -0.1860    4.1100 n         1 MOL     -0.142322
    175 C58        -4.6830    0.5600    5.3210 c3        1 MOL     -0.085159
    176 H77        -5.5430    1.1740    5.0580 h1        1 MOL      0.050662
    177 H78        -4.9670   -0.1500    6.0980 h1        1 MOL      0.050662
    178 H79        -3.8800    1.1990    5.6880 h1        1 MOL      0.050662
    179 H80        -3.8770    0.4510    3.4000 hn        1 MOL      0.099663
    180 Ca1         2.4930   -0.2080    0.2660 Ca        1 MOL      1.641917
    181 O27         1.9320   -0.7750    2.8730 oh        1 MOL     -0.836578
    182 O28         1.1820    1.7810   -1.1140 oh        1 MOL     -0.836578
    183 H81         2.5740   -0.2970    3.4040 ho        1 MOL      0.404531
    184 H82         1.9590    2.2660   -1.3840 ho        1 MOL      0.404531
    185 H83         1.6420   -1.4940    3.4340 ho        1 MOL      0.404531
    186 H84         1.0060    1.1890   -1.8410 ho        1 MOL      0.404531
    187 O29         4.8790   -0.3590    1.7480 oh        1 MOL     -0.836578
    188 H85         5.6500   -0.8960    1.6000 ho        1 MOL      0.404531
    189 H86         4.7760   -0.3470    2.7000 ho        1 MOL      0.404531
@<TRIPOS>BOND
     1    1    2 1   
     2    1    4 1   
     3    1    5 1   
     4    1    6 1   
     5    2    3 2   
     6    2    7 1   
     7    7    8 1   
     8    7   15 1   
     9    8    9 1   
    10    8   11 1   
    11    8   16 1   
    12    9   10 2   
    13    9   19 1   
    14   11   12 1   
    15   11   17 1   
    16   11   18 1   
    17   12   13 1   
    18   12   14 1   
    19   19   20 1   
    20   19   27 1   
    21   20   21 1   
    22   20   23 1   
    23   20   28 1   
    24   21   22 2   
    25   21   38 1   
    26   23   24 1   
    27   23   25 1   
    28   23   29 1   
    29   24   26 1   
    30   24   30 1   
    31   24   31 1   
    32   25   32 1   
    33   25   33 1   
    34   25   34 1   
    35   26   35 1   
    36   26   36 1   
    37   26   37 1   
    38   38   39 1   
    39   38   46 1   
    40   39   40 1   
    41   39   42 1   
    42   39   47 1   
    43   40   41 2   
    44   40   50 1   
    45   42   43 1   
    46   42   48 1   
    47   42   49 1   
    48   43   44 1   
    49   43   45 1   
    50   50   51 1   
    51   50   54 1   
    52   51   52 1   
    53   51   55 1   
    54   51   56 1   
    55   52   53 2   
    56   52   57 1   
    57   57   58 1   
    58   57   65 1   
    59   58   59 1   
    60   58   61 1   
    61   58   66 1   
    62   59   60 2   
    63   59   69 1   
    64   61   62 1   
    65   61   67 1   
    66   61   68 1   
    67   62   63 1   
    68   62   64 1   
    69   69   70 1   
    70   69   73 1   
    71   70   71 1   
    72   70   74 1   
    73   70   75 1   
    74   71   72 2   
    75   71   76 1   
    76   76   77 1   
    77   76   85 1   
    78   77   78 1   
    79   77   80 1   
    80   77   86 1   
    81   78   79 2   
    82   78   93 1   
    83   80   81 1   
    84   80   87 1   
    85   80   88 1   
    86   81   82 1   
    87   81   89 1   
    88   81   90 1   
    89   82   83 1   
    90   82   84 2   
    91   83   91 1   
    92   83   92 1   
    93   93   94 1   
    94   93  100 1   
    95   94   95 1   
    96   94   97 1   
    97   94  101 1   
    98   95   96 2   
    99   95  109 1   
   100   97   98 1   
   101   97   99 1   
   102   97  102 1   
   103   98  103 1   
   104   98  104 1   
   105   98  105 1   
   106   99  106 1   
   107   99  107 1   
   108   99  108 1   
   109  109  110 1   
   110  109  117 1   
   111  110  111 1   
   112  110  113 1   
   113  110  118 1   
   114  111  112 2   
   115  111  123 1   
   116  113  114 1   
   117  113  119 1   
   118  113  120 1   
   119  114  115 1   
   120  114  116 2   
   121  115  121 1   
   122  115  122 1   
   123  123  124 1   
   124  123  135 1   
   125  124  125 1   
   126  124  127 1   
   127  124  136 1   
   128  125  126 2   
   129  125  144 1   
   130  127  128 1   
   131  127  137 1   
   132  127  138 1   
   133  128  129 ar  
   134  128  130 ar  
   135  129  131 ar  
   136  129  139 1   
   137  130  132 ar  
   138  130  140 1   
   139  131  133 ar  
   140  131  141 1   
   141  132  133 ar  
   142  132  142 1   
   143  133  134 1   
   144  134  143 1   
   145  144  145 1   
   146  144  153 1   
   147  145  146 1   
   148  145  148 1   
   149  145  154 1   
   150  146  147 2   
   151  146  159 1   
   152  148  149 1   
   153  148  155 1   
   154  148  156 1   
   155  149  150 1   
   156  149  157 1   
   157  149  158 1   
   158  150  151 1   
   159  150  152 1   
   160  159  160 1   
   161  159  168 1   
   162  160  161 1   
   163  160  163 1   
   164  160  169 1   
   165  161  162 2   
   166  161  174 1   
   167  163  164 1   
   168  163  170 1   
   169  163  171 1   
   170  164  165 1   
   171  164  172 1   
   172  164  173 1   
   173  165  166 1   
   174  165  167 1   
   175  174  175 1   
   176  174  179 1   
   177  175  176 1   
   178  175  177 1   
   179  175  178 1   
   180  181  183 1   
   181  181  185 1   
   182  182  184 1   
   183  182  186 1   
   184  187  188 1   
   185  187  189 1   
@<TRIPOS>SUBSTRUCTURE
     1 MOL         1 TEMP              0 ****  ****    0 ROOT
