@<TRIPOS>MOLECULE
MOL
  179   176     1     0     0
SMALL
resp


@<TRIPOS>ATOM
      1 C1          2.6380    2.5260    4.8850 c3        1 MOL     -0.472927
      2 C2          1.9620    2.1750    3.5970 c         1 MOL      0.824807
      3 O1          2.5970    1.8960    2.5920 o         1 MOL     -0.659164
      4 H1          1.9370    2.3980    5.7100 hc        1 MOL      0.123251
      5 H2          3.4970    1.8710    5.0360 hc        1 MOL      0.123251
      6 H3          2.9730    3.5630    4.8500 hc        1 MOL      0.123251
      7 N1          0.6670    2.4230    3.5450 n         1 MOL     -0.757682
      8 C3         -0.0580    2.2420    2.2300 c3        1 MOL      0.113020
      9 C4          0.0130    3.6140    1.5740 c         1 MOL      0.512746
     10 O2         -0.6420    4.5370    1.9640 o         1 MOL     -0.574429
     11 C5         -1.5020    1.7870    2.6620 c3        1 MOL     -0.194475
     12 C6         -2.4180    1.5270    1.4700 c         1 MOL      0.932599
     13 O3         -1.9990    1.7830    0.2960 o         1 MOL     -0.836721
     14 O4         -3.5510    0.9400    1.6800 o         1 MOL     -0.836721
     15 H4          0.0530    2.4860    4.3460 hn        1 MOL      0.367789
     16 H5          0.3380    1.5530    1.4900 h1        1 MOL      0.011963
     17 H6         -2.0130    2.5550    3.2480 hc        1 MOL      0.053852
     18 H7         -1.4480    0.8920    3.2780 hc        1 MOL      0.053852
     19 N2          0.6960    3.8430    0.4210 n         1 MOL     -0.203049
     20 C7          0.8790    5.2180   -0.1700 c3        1 MOL      0.125209
     21 C8         -0.2110    5.6280   -1.1500 c         1 MOL      0.397560
     22 O5         -0.1440    6.7710   -1.6210 o         1 MOL     -0.548600
     23 C9          2.3650    5.3800   -0.6400 c3        1 MOL     -0.477567
     24 C10         3.4390    5.2850    0.5110 c3        1 MOL      0.102662
     25 C11         3.4480    6.4960    1.4000 c3        1 MOL     -0.100470
     26 C12         2.3970    6.3190    2.5420 c3        1 MOL      0.032405
     27 N3          1.6530    7.6170    2.7430 n4        1 MOL     -0.494694
     28 H8          1.2680    3.1040    0.0530 hn        1 MOL      0.391113
     29 H9          0.6570    5.9530    0.6030 h1        1 MOL      0.025935
     30 H10         2.4330    6.3300   -1.1820 hc        1 MOL      0.173645
     31 H11         2.4950    4.4710   -1.2320 hc        1 MOL      0.173645
     32 H12         4.4560    5.2070    0.1100 hc        1 MOL      0.037501
     33 H13         3.2940    4.3810    1.0920 hc        1 MOL      0.037501
     34 H14         3.1750    7.2930    0.7130 hc        1 MOL      0.055938
     35 H15         4.4180    6.6340    1.8800 hc        1 MOL      0.055938
     36 H16         2.9040    6.0560    3.4670 hx        1 MOL      0.096735
     37 H17         1.7060    5.5450    2.2050 hx        1 MOL      0.096735
     38 H18         0.9510    7.4020    3.4370 hn        1 MOL      0.357056
     39 H19         2.1520    8.3400    3.2400 hn        1 MOL      0.357056
     40 H20         1.1880    8.0310    1.9480 hn        1 MOL      0.357056
     41 N4         -1.1610    4.7580   -1.5090 n         1 MOL     -0.146309
     42 C13        -2.3930    5.1050   -2.2660 c3        1 MOL     -0.085858
     43 C14        -3.7620    4.7330   -1.6530 c         1 MOL      0.491134
     44 O6         -4.8170    4.7880   -2.2780 o         1 MOL     -0.517162
     45 C15        -2.3260    4.4750   -3.6430 c3        1 MOL     -0.026674
     46 C16        -2.3080    2.9450   -3.6930 c         1 MOL      0.659435
     47 O7         -2.2530    2.1780   -2.6670 o         1 MOL     -0.690629
     48 O8         -2.2210    2.4430   -4.8840 o         1 MOL     -0.690629
     49 H21        -1.0040    3.8630   -1.0650 hn        1 MOL      0.058250
     50 H22        -2.4690    6.2000   -2.2880 h1        1 MOL      0.106433
     51 H23        -1.4070    4.8300   -4.1070 hc        1 MOL      0.030615
     52 H24        -3.0470    4.7640   -4.4010 hc        1 MOL      0.030615
     53 N5         -3.6410    4.3100   -0.3680 n         1 MOL     -0.261752
     54 C17        -4.7610    4.1450    0.5970 c3        1 MOL     -0.291744
     55 C18        -5.6230    2.9360    0.5540 c         1 MOL      0.555756
     56 O9         -6.6970    2.8310    1.1450 o         1 MOL     -0.600847
     57 H25        -2.6890    4.0890   -0.1070 hn        1 MOL      0.165982
     58 H26        -5.4780    4.9620    0.5620 h1        1 MOL      0.138237
     59 H27        -4.1540    4.2130    1.4970 h1        1 MOL      0.138237
     60 N6         -5.3740    2.0640   -0.4020 n         1 MOL     -0.122195
     61 C19        -6.3180    1.1450   -0.9860 c3        1 MOL     -0.165124
     62 C20        -6.6920   -0.0100   -0.0990 c         1 MOL      0.495422
     63 O10        -7.5280   -0.8140   -0.4730 o         1 MOL     -0.538761
     64 C21        -5.8370    0.6700   -2.3690 c3        1 MOL     -0.323050
     65 C22        -4.7950   -0.4260   -2.3230 c         1 MOL      0.648150
     66 N7         -4.9970   -1.6020   -2.8510 n         1 MOL     -0.708036
     67 O11        -3.7360   -0.2330   -1.7730 o         1 MOL     -0.579368
     68 H28        -4.4800    2.1670   -0.8580 hn        1 MOL      0.255250
     69 H29        -7.2690    1.6650   -1.1440 h1        1 MOL      0.160681
     70 H30        -5.4200    1.4820   -2.9730 hc        1 MOL      0.132320
     71 H31        -6.6840    0.2590   -2.9130 hc        1 MOL      0.132320
     72 H32        -5.7370   -1.6830   -3.5430 hn        1 MOL      0.354570
     73 H33        -4.3070   -2.3310   -2.7110 hn        1 MOL      0.354570
     74 N8         -6.1680   -0.0840    1.1160 n         1 MOL     -0.245112
     75 C23        -6.4300   -1.1360    2.1140 c3        1 MOL     -0.191011
     76 C24        -5.3870   -2.2360    2.1980 c         1 MOL      0.430333
     77 O12        -5.5170   -3.2990    2.8900 o         1 MOL     -0.550736
     78 H34        -5.3970    0.5440    1.3230 hn        1 MOL      0.329210
     79 H35        -7.4530   -1.5060    2.0070 h1        1 MOL      0.123190
     80 H36        -6.3820   -0.6540    3.0980 h1        1 MOL      0.123190
     81 N9         -4.3750   -2.1160    1.3370 n         1 MOL     -0.030619
     82 C25        -3.2500   -2.9880    1.2390 c3        1 MOL      0.085531
     83 C26        -1.8550   -2.3400    1.2860 c         1 MOL      0.441489
     84 O13        -1.6080   -1.2970    0.7040 o         1 MOL     -0.581325
     85 C27        -3.3780   -3.8780    0.0130 c3        1 MOL      0.200056
     86 C28        -4.4730   -4.9160    0.0170 ca        1 MOL     -0.124275
     87 C29        -5.7060   -4.7340   -0.7040 ca        1 MOL     -0.157019
     88 C30        -4.2740   -6.1110    0.7650 ca        1 MOL     -0.157019
     89 C31        -6.6090   -5.8430   -0.7800 ca        1 MOL     -0.128200
     90 C32        -5.2330   -7.1220    0.8020 ca        1 MOL     -0.128200
     91 C33        -6.3520   -7.0570   -0.0790 ca        1 MOL      0.204485
     92 O14        -7.1580   -8.1200   -0.2990 oh        1 MOL     -0.447511
     93 H37        -4.5090   -1.2920    0.7780 hn        1 MOL      0.073023
     94 H38        -3.2190   -3.5760    2.1540 h1        1 MOL      0.013986
     95 H39        -2.5070   -4.5210   -0.0470 hc        1 MOL     -0.033001
     96 H40        -3.3170   -3.2910   -0.9050 hc        1 MOL     -0.033001
     97 H41        -5.7980   -3.8410   -1.3040 ha        1 MOL      0.110973
     98 H42        -3.3470   -6.1840    1.3230 ha        1 MOL      0.110973
     99 H43        -7.4340   -5.8050   -1.4630 ha        1 MOL      0.115449
    100 H44        -5.0960   -8.0460    1.3410 ha        1 MOL      0.115449
    101 H45        -6.7830   -8.8830    0.1450 ho        1 MOL      0.354546
    102 N10        -0.9390   -2.9510    2.0550 n         1 MOL     -0.485155
    103 C34         0.4960   -2.5550    1.8850 c3        1 MOL     -0.076770
    104 C35         1.2650   -3.6210    1.0640 c         1 MOL      0.581282
    105 O15         1.2460   -4.7730    1.4680 o         1 MOL     -0.566511
    106 C36         1.2690   -2.4460    3.2140 c3        1 MOL      0.306021
    107 C37         0.4910   -1.6220    4.3160 c3        1 MOL     -0.001854
    108 C38         2.6380   -1.8830    2.9050 c3        1 MOL     -0.295783
    109 C39         0.8340   -2.0130    5.7440 c3        1 MOL     -0.317068
    110 H46        -1.2180   -3.6450    2.7410 hn        1 MOL      0.323007
    111 H47         0.5850   -1.5970    1.3740 h1        1 MOL      0.104082
    112 H48         1.3820   -3.4270    3.6910 hc        1 MOL     -0.017322
    113 H49        -0.5880   -1.4880    4.2700 hc        1 MOL      0.052641
    114 H50         1.0590   -0.6970    4.2010 hc        1 MOL      0.052641
    115 H51         2.5380   -0.9490    2.3460 hc        1 MOL      0.064821
    116 H52         3.2670   -1.6460    3.7680 hc        1 MOL      0.064821
    117 H53         3.2230   -2.6650    2.4180 hc        1 MOL      0.064821
    118 H54         0.3910   -2.9930    5.8920 hc        1 MOL      0.070352
    119 H55         1.9140   -2.0590    5.8530 hc        1 MOL      0.070352
    120 H56         0.4800   -1.2540    6.4440 hc        1 MOL      0.070352
    121 N11         2.0100   -3.1690    0.0600 n         1 MOL     -0.499292
    122 C40         3.0530   -3.9320   -0.5970 c3        1 MOL      0.240816
    123 C41         4.5240   -3.6760   -0.1030 c         1 MOL      0.420518
    124 O16         4.8500   -2.5740    0.3490 o         1 MOL     -0.412536
    125 C42         2.9600   -3.9540   -2.1640 c3        1 MOL     -0.328351
    126 O17         3.4500   -2.7350   -2.7380 oh        1 MOL     -0.304619
    127 H57         1.9870   -2.1630   -0.0790 hn        1 MOL      0.368346
    128 H58         2.8970   -4.9500   -0.2490 h1        1 MOL      0.026314
    129 H59         1.9650   -4.1660   -2.5480 h1        1 MOL      0.132302
    130 H60         3.6600   -4.7380   -2.4540 h1        1 MOL      0.132302
    131 H61         3.2030   -2.8050   -3.6610 ho        1 MOL      0.351864
    132 N12         5.4420   -4.6560   -0.2990 n         1 MOL     -0.456382
    133 C43         6.9250   -4.4900   -0.1650 c3        1 MOL      0.089092
    134 C44         7.5720   -3.3250   -0.9340 c         1 MOL      0.524312
    135 O18         8.6080   -2.8650   -0.5030 o         1 MOL     -0.531160
    136 C45         7.6560   -5.7870   -0.5940 c3        1 MOL     -0.314418
    137 H62         5.1820   -5.5720   -0.6330 hn        1 MOL      0.296278
    138 H63         7.1700   -4.3580    0.8880 h1        1 MOL      0.084311
    139 H64         8.6890   -5.5680   -0.3340 hc        1 MOL      0.100171
    140 H65         7.3230   -6.6380    0.0060 hc        1 MOL      0.100171
    141 H66         7.6130   -6.0530   -1.6520 hc        1 MOL      0.100171
    142 N13         6.9510   -2.9100   -2.0040 n         1 MOL     -0.393401
    143 C46         7.4020   -1.7290   -2.8510 c3        1 MOL      0.061138
    144 C47         7.0470   -0.4150   -2.0810 c         1 MOL      0.433745
    145 O19         7.8990    0.4500   -2.0610 o         1 MOL     -0.499433
    146 C48         6.6180   -1.8870   -4.1560 c3        1 MOL     -0.051162
    147 H67         6.0160   -3.2590   -2.1340 hn        1 MOL      0.213793
    148 H68         8.4590   -1.7680   -3.1180 h1        1 MOL      0.105916
    149 H69         6.6410   -2.8840   -4.5930 hc        1 MOL      0.005622
    150 H70         5.5530   -1.7590   -3.9360 hc        1 MOL      0.005622
    151 H71         6.9710   -1.1480   -4.8810 hc        1 MOL      0.005622
    152 N14         5.9050   -0.2930   -1.4300 n         1 MOL     -0.223443
    153 C49         5.5390    0.9480   -0.6400 c3        1 MOL     -0.192806
    154 C50         6.4190    1.1310    0.5510 c         1 MOL      0.503741
    155 O20         6.8610    2.2390    0.7180 o         1 MOL     -0.545130
    156 C51         4.0370    0.8860   -0.3070 c3        1 MOL      0.086243
    157 C52         3.2240    0.5960   -1.5670 c3        1 MOL      0.009795
    158 C53         1.7250    0.5980   -1.2200 c         1 MOL      0.743096
    159 O21         1.0510    1.6290   -1.4730 o         1 MOL     -0.804504
    160 O22         1.1880   -0.4510   -0.8120 o         1 MOL     -0.804504
    161 H72         5.3350   -1.1170   -1.2940 hn        1 MOL      0.264315
    162 H73         5.5990    1.8470   -1.2600 h1        1 MOL      0.137778
    163 H74         3.6820    1.8600    0.0360 hc        1 MOL     -0.017368
    164 H75         3.8020    0.0460    0.3600 hc        1 MOL     -0.017368
    165 H76         3.3710   -0.3600   -2.0520 hc        1 MOL     -0.063921
    166 H77         3.3560    1.4330   -2.2590 hc        1 MOL     -0.063921
    167 N15         6.7470    0.0480    1.2510 n         1 MOL     -0.136550
    168 C54         7.7680    0.0140    2.3190 c3        1 MOL     -0.192140
    169 H78         7.2750   -0.0420    3.2890 h1        1 MOL      0.093306
    170 H79         8.4070   -0.8580    2.1840 h1        1 MOL      0.093306
    171 H80         8.3740    0.9190    2.2720 h1        1 MOL      0.093306
    172 H81         6.2590   -0.7830    0.9500 hn        1 MOL      0.122604
    173 Ca1        -1.2340    0.1470   -1.4310 Ca        1 MOL      1.761838
    174 O23        -0.5140    0.3720   -4.0590 oh        1 MOL     -0.816827
    175 H82        -0.7600    1.2500   -4.3540 ho        1 MOL      0.392828
    176 H83         0.3250    0.2020   -4.4910 ho        1 MOL      0.392828
    177 O24        -1.4550   -2.2320   -2.4950 oh        1 MOL     -0.816827
    178 H84        -2.1400   -2.7660   -2.9040 ho        1 MOL      0.392828
    179 H85        -0.7580   -2.8610   -2.2930 ho        1 MOL      0.392828
@<TRIPOS>BOND
     1    1    2 1   
     2    1    4 1   
     3    1    5 1   
     4    1    6 1   
     5    2    3 2   
     6    2    7 1   
     7    7    8 1   
     8    7   15 1   
     9    8    9 1   
    10    8   11 1   
    11    8   16 1   
    12    9   10 2   
    13    9   19 1   
    14   11   12 1   
    15   11   17 1   
    16   11   18 1   
    17   12   13 1   
    18   12   14 1   
    19   19   20 1   
    20   19   28 1   
    21   20   21 1   
    22   20   23 1   
    23   20   29 1   
    24   21   22 2   
    25   21   41 1   
    26   23   24 1   
    27   23   30 1   
    28   23   31 1   
    29   24   25 1   
    30   24   32 1   
    31   24   33 1   
    32   25   26 1   
    33   25   34 1   
    34   25   35 1   
    35   26   27 1   
    36   26   36 1   
    37   26   37 1   
    38   27   38 1   
    39   27   39 1   
    40   27   40 1   
    41   41   42 1   
    42   41   49 1   
    43   42   43 1   
    44   42   45 1   
    45   42   50 1   
    46   43   44 2   
    47   43   53 1   
    48   45   46 1   
    49   45   51 1   
    50   45   52 1   
    51   46   47 1   
    52   46   48 1   
    53   53   54 1   
    54   53   57 1   
    55   54   55 1   
    56   54   58 1   
    57   54   59 1   
    58   55   56 2   
    59   55   60 1   
    60   60   61 1   
    61   60   68 1   
    62   61   62 1   
    63   61   64 1   
    64   61   69 1   
    65   62   63 2   
    66   62   74 1   
    67   64   65 1   
    68   64   70 1   
    69   64   71 1   
    70   65   66 1   
    71   65   67 2   
    72   66   72 1   
    73   66   73 1   
    74   74   75 1   
    75   74   78 1   
    76   75   76 1   
    77   75   79 1   
    78   75   80 1   
    79   76   77 2   
    80   76   81 1   
    81   81   82 1   
    82   81   93 1   
    83   82   83 1   
    84   82   85 1   
    85   82   94 1   
    86   83   84 2   
    87   83  102 1   
    88   85   86 1   
    89   85   95 1   
    90   85   96 1   
    91   86   87 ar  
    92   86   88 ar  
    93   87   89 ar  
    94   87   97 1   
    95   88   90 ar  
    96   88   98 1   
    97   89   91 ar  
    98   89   99 1   
    99   90   91 ar  
   100   90  100 1   
   101   91   92 1   
   102   92  101 1   
   103  102  103 1   
   104  102  110 1   
   105  103  104 1   
   106  103  106 1   
   107  103  111 1   
   108  104  105 2   
   109  104  121 1   
   110  106  107 1   
   111  106  108 1   
   112  106  112 1   
   113  107  109 1   
   114  107  113 1   
   115  107  114 1   
   116  108  115 1   
   117  108  116 1   
   118  108  117 1   
   119  109  118 1   
   120  109  119 1   
   121  109  120 1   
   122  121  122 1   
   123  121  127 1   
   124  122  123 1   
   125  122  125 1   
   126  122  128 1   
   127  123  124 2   
   128  123  132 1   
   129  125  126 1   
   130  125  129 1   
   131  125  130 1   
   132  126  131 1   
   133  132  133 1   
   134  132  137 1   
   135  133  134 1   
   136  133  136 1   
   137  133  138 1   
   138  134  135 2   
   139  134  142 1   
   140  136  139 1   
   141  136  140 1   
   142  136  141 1   
   143  142  143 1   
   144  142  147 1   
   145  143  144 1   
   146  143  146 1   
   147  143  148 1   
   148  144  145 2   
   149  144  152 1   
   150  146  149 1   
   151  146  150 1   
   152  146  151 1   
   153  152  153 1   
   154  152  161 1   
   155  153  154 1   
   156  153  156 1   
   157  153  162 1   
   158  154  155 2   
   159  154  167 1   
   160  156  157 1   
   161  156  163 1   
   162  156  164 1   
   163  157  158 1   
   164  157  165 1   
   165  157  166 1   
   166  158  159 1   
   167  158  160 1   
   168  167  168 1   
   169  167  172 1   
   170  168  169 1   
   171  168  170 1   
   172  168  171 1   
   173  174  175 1   
   174  174  176 1   
   175  177  178 1   
   176  177  179 1   
@<TRIPOS>SUBSTRUCTURE
     1 MOL         1 TEMP              0 ****  ****    0 ROOT
