@<TRIPOS>MOLECULE
MOL
  182   178     1     0     0
SMALL
resp


@<TRIPOS>ATOM
      1 C1          2.0830    1.7190    6.2660 c3        1 MOL     -0.315005
      2 C2          1.6460    1.4760    4.7860 c         1 MOL      0.718993
      3 O1          2.4520    1.7280    3.8380 o         1 MOL     -0.585003
      4 H1          1.2340    1.5500    6.9280 hc        1 MOL      0.090372
      5 H2          2.8880    1.0310    6.5260 hc        1 MOL      0.090372
      6 H3          2.4310    2.7460    6.3790 hc        1 MOL      0.090372
      7 N1          0.2990    1.2950    4.5920 n         1 MOL     -0.713021
      8 C3         -0.3000    1.4360    3.2230 c3        1 MOL      0.191445
      9 C4         -0.2640    2.9350    2.8250 c         1 MOL      0.627389
     10 O2         -0.7870    3.8000    3.5720 o         1 MOL     -0.584056
     11 C5         -1.7100    0.8130    3.0930 c3        1 MOL     -0.138911
     12 C6         -2.4850    1.2680    1.8520 c         1 MOL      0.519682
     13 O3         -1.8560    1.3290    0.7720 o         1 MOL     -0.624166
     14 O4         -3.7260    1.5980    1.9230 o         1 MOL     -0.624166
     15 H4         -0.3020    1.2460    5.3950 hn        1 MOL      0.367952
     16 H5          0.3470    0.9350    2.4950 h1        1 MOL      0.014940
     17 H6         -2.2120    1.1450    4.0050 hc        1 MOL      0.042124
     18 H7         -1.6640   -0.2760    3.0730 hc        1 MOL      0.042124
     19 N2          0.3550    3.2870    1.6910 n         1 MOL     -0.211421
     20 C7          0.8600    4.6890    1.3520 c3        1 MOL     -0.237740
     21 C8         -0.2310    5.4800    0.5670 c         1 MOL      0.582482
     22 O5         -0.1290    6.7100    0.4300 o         1 MOL     -0.601630
     23 C9          2.1790    4.5200    0.5910 c3        1 MOL      0.058026
     24 C10         2.8530    5.7890    0.1260 c3        1 MOL      0.003180
     25 C11         4.0720    5.4830   -0.7500 c3        1 MOL     -0.121372
     26 C12         4.4150    6.6710   -1.6310 c3        1 MOL     -0.085649
     27 N3          3.9000    6.5600   -2.9990 n4        1 MOL     -0.320119
     28 H8          0.7180    2.5020    1.1620 hn        1 MOL      0.098404
     29 H9          1.0050    5.2780    2.2560 h1        1 MOL      0.139573
     30 H10         2.0810    3.8980   -0.3060 hc        1 MOL      0.067423
     31 H11         2.8810    4.0530    1.2850 hc        1 MOL      0.067423
     32 H12         3.1360    6.4610    0.9380 hc        1 MOL      0.033959
     33 H13         2.1620    6.3190   -0.5340 hc        1 MOL      0.033959
     34 H14         3.8980    4.6240   -1.3940 hc        1 MOL      0.077801
     35 H15         4.9510    5.2910   -0.1450 hc        1 MOL      0.077801
     36 H16         5.4880    6.7940   -1.5970 hx        1 MOL      0.123802
     37 H17         3.9460    7.4960   -1.0860 hx        1 MOL      0.123802
     38 H18         4.4740    5.8880   -3.4950 hn        1 MOL      0.323098
     39 H19         2.9940    6.1190   -2.9530 hn        1 MOL      0.323098
     40 H20         4.0490    7.3120   -3.6540 hn        1 MOL      0.323098
     41 N4         -1.1760    4.8030   -0.0400 n         1 MOL     -0.395654
     42 C13        -2.1800    5.3460   -0.9240 c3        1 MOL      0.157609
     43 C14        -3.6170    4.9110   -0.5780 c         1 MOL      0.391011
     44 O6         -4.5490    5.1370   -1.3820 o         1 MOL     -0.501157
     45 C15        -1.9360    5.0540   -2.4130 c3        1 MOL     -0.300051
     46 C16        -2.0590    3.5880   -2.8170 c         1 MOL      0.831988
     47 O7         -2.2840    3.3390   -4.0290 o         1 MOL     -0.724028
     48 O8         -1.9950    2.6680   -1.9950 o         1 MOL     -0.724028
     49 H21        -1.1470    3.8010    0.1220 hn        1 MOL      0.194087
     50 H22        -2.2560    6.4290   -0.8720 h1        1 MOL      0.093245
     51 H23        -0.8880    5.3200   -2.5890 hc        1 MOL      0.061377
     52 H24        -2.5880    5.5750   -3.1070 hc        1 MOL      0.061377
     53 N5         -3.7990    4.1940    0.5320 n         1 MOL     -0.272010
     54 C17        -5.0890    4.0980    1.1880 c3        1 MOL     -0.174644
     55 C18        -5.9410    3.0190    0.5430 c         1 MOL      0.641678
     56 O9         -7.1140    3.1710    0.5900 o         1 MOL     -0.575093
     57 H25        -2.9940    3.7000    0.8890 hn        1 MOL      0.259601
     58 H26        -5.6720    5.0220    1.2290 h1        1 MOL      0.106906
     59 H27        -4.8530    3.7060    2.1730 h1        1 MOL      0.106906
     60 N6         -5.3370    2.0790   -0.2590 n         1 MOL     -0.231350
     61 C19        -6.0900    0.9790   -0.8530 c3        1 MOL     -0.053571
     62 C20        -6.3700   -0.3130   -0.0680 c         1 MOL      0.288424
     63 O10        -7.0440   -1.1910   -0.5940 o         1 MOL     -0.437054
     64 C21        -5.6850    0.7030   -2.2800 c3        1 MOL     -0.260597
     65 C22        -4.5600   -0.3890   -2.4530 c         1 MOL      0.449870
     66 N7         -4.6970   -1.2950   -3.3810 n         1 MOL     -0.625335
     67 O11        -3.5840   -0.4400   -1.7110 o         1 MOL     -0.473076
     68 H28        -4.3720    1.9010   -0.0170 hn        1 MOL      0.139887
     69 H29        -7.0820    1.4100   -0.9830 h1        1 MOL      0.136380
     70 H30        -5.3920    1.5920   -2.8410 hc        1 MOL      0.118956
     71 H31        -6.5240    0.2790   -2.8370 hc        1 MOL      0.118956
     72 H32        -5.5080   -1.1790   -3.9750 hn        1 MOL      0.340239
     73 H33        -3.9000   -1.8590   -3.6450 hn        1 MOL      0.340239
     74 N8         -5.9200   -0.3150    1.1380 n         1 MOL     -0.091117
     75 C23        -5.9770   -1.2930    2.2280 c3        1 MOL     -0.334126
     76 C24        -5.0450   -2.4580    2.0690 c         1 MOL      0.586677
     77 O12        -5.0700   -3.4350    2.7400 o         1 MOL     -0.557902
     78 H34        -5.3340    0.4750    1.3620 hn        1 MOL      0.175296
     79 H35        -6.9320   -1.8060    2.3450 h1        1 MOL      0.156388
     80 H36        -5.8210   -0.8160    3.1940 h1        1 MOL      0.156388
     81 N9         -4.0970   -2.3300    1.1000 n         1 MOL     -0.215628
     82 C25        -3.0810   -3.2640    0.6940 c3        1 MOL      0.071089
     83 C26        -1.6520   -2.7390    0.6350 c         1 MOL      0.366833
     84 O13        -1.3230   -1.7780   -0.0810 o         1 MOL     -0.593342
     85 C27        -3.3950   -3.9580   -0.6710 c3        1 MOL      0.094377
     86 C28        -4.7370   -4.6000   -0.7610 ca        1 MOL     -0.092799
     87 C29        -5.8090   -4.0390   -1.5220 ca        1 MOL     -0.137633
     88 C30        -5.1130   -5.6730    0.1040 ca        1 MOL     -0.137633
     89 C31        -7.1280   -4.4680   -1.4140 ca        1 MOL     -0.303028
     90 C32        -6.4360   -6.1870    0.2540 ca        1 MOL     -0.303028
     91 C33        -7.3900   -5.5750   -0.5730 ca        1 MOL      0.430587
     92 O14        -8.5950   -6.0800   -0.4610 oh        1 MOL     -0.501441
     93 H37        -4.0940   -1.4540    0.6040 hn        1 MOL      0.234544
     94 H38        -3.1020   -4.0950    1.4010 h1        1 MOL      0.040021
     95 H39        -2.6840   -4.7570   -0.9020 hc        1 MOL      0.007943
     96 H40        -3.4430   -3.1980   -1.4460 hc        1 MOL      0.007943
     97 H41        -5.5500   -3.1550   -2.0770 ha        1 MOL      0.123495
     98 H42        -4.3160   -6.0360    0.7200 ha        1 MOL      0.123495
     99 H43        -7.9410   -4.0150   -1.9490 ha        1 MOL      0.161845
    100 H44        -6.7160   -6.9860    0.9280 ha        1 MOL      0.161845
    101 H45        -8.5770   -6.6720    0.3050 ho        1 MOL      0.356521
    102 N10        -0.6550   -3.3000    1.3710 n         1 MOL     -0.447380
    103 C34         0.7400   -2.8450    1.3660 c3        1 MOL      0.105331
    104 C35         1.4000   -3.7790    0.3840 c         1 MOL      0.622312
    105 O15         1.5610   -4.9360    0.6690 o         1 MOL     -0.571302
    106 C36         1.2600   -2.9120    2.7690 c3        1 MOL      0.126961
    107 C37         0.6150   -2.0880    3.8770 c3        1 MOL      0.288143
    108 C38         2.7460   -2.6540    2.7860 c3        1 MOL     -0.204504
    109 C39         1.0690   -2.4650    5.3160 c3        1 MOL     -0.158265
    110 H46        -0.8790   -4.1470    1.8860 hn        1 MOL      0.283720
    111 H47         0.8360   -1.8280    0.9790 h1        1 MOL      0.061039
    112 H48         1.0710   -3.9460    3.0630 hc        1 MOL     -0.032122
    113 H49        -0.4660   -2.2170    3.8650 hc        1 MOL     -0.076871
    114 H50         0.8490   -1.0460    3.6970 hc        1 MOL     -0.076871
    115 H51         3.1000   -1.6650    2.5170 hc        1 MOL      0.025226
    116 H52         3.0320   -2.9350    3.8000 hc        1 MOL      0.025226
    117 H53         3.2370   -3.3860    2.1440 hc        1 MOL      0.025226
    118 H54         2.1350   -2.3310    5.4800 hc        1 MOL      0.024723
    119 H55         0.5990   -1.7520    6.0040 hc        1 MOL      0.024723
    120 H56         0.5830   -3.3760    5.6690 hc        1 MOL      0.024723
    121 N11         1.8630   -3.1730   -0.7110 n         1 MOL     -0.289702
    122 C40         2.8510   -3.8470   -1.6110 c3        1 MOL     -0.229308
    123 C41         4.2990   -3.7570   -1.0390 c         1 MOL      0.582794
    124 O16         4.6230   -3.0070   -0.1040 o         1 MOL     -0.438640
    125 C42         2.7090   -3.2140   -2.9660 c3        1 MOL      0.193227
    126 O17         3.1480   -1.8310   -2.8890 oh        1 MOL     -0.673463
    127 H57         1.9190   -2.1660   -0.6920 hn        1 MOL      0.171937
    128 H58         2.5020   -4.8810   -1.6360 h1        1 MOL      0.113439
    129 H59         1.6820   -3.2360   -3.3360 h1        1 MOL      0.042006
    130 H60         3.2540   -3.7460   -3.7360 h1        1 MOL      0.042006
    131 H61         2.5670   -1.2340   -2.4060 ho        1 MOL      0.468090
    132 N12         5.2320   -4.5260   -1.5750 n         1 MOL     -0.468773
    133 C43         6.6420   -4.5040   -1.1400 c3        1 MOL      0.078673
    134 C44         7.3730   -3.1320   -1.3060 c         1 MOL      0.432167
    135 O18         8.2340   -2.8140   -0.5170 o         1 MOL     -0.502096
    136 C45         7.4410   -5.5550   -1.8720 c3        1 MOL     -0.153750
    137 H62         5.0620   -5.1610   -2.3390 hn        1 MOL      0.293100
    138 H63         6.6440   -4.8370   -0.1060 h1        1 MOL      0.108697
    139 H64         7.8690   -5.1540   -2.7980 hc        1 MOL      0.055834
    140 H65         8.2010   -5.9620   -1.2000 hc        1 MOL      0.055834
    141 H66         6.8930   -6.4170   -2.2450 hc        1 MOL      0.055834
    142 N13         7.0100   -2.2300   -2.2050 n         1 MOL     -0.360974
    143 C46         7.5120   -0.8600   -2.1940 c3        1 MOL      0.055974
    144 C47         7.0840   -0.0070   -1.1040 c         1 MOL      0.365366
    145 O19         7.8480    0.9140   -0.7980 o         1 MOL     -0.517557
    146 C48         7.1810   -0.1670   -3.5210 c3        1 MOL     -0.236419
    147 H67         6.3950   -2.5080   -2.9590 hn        1 MOL      0.282356
    148 H68         8.6000   -0.8630   -2.1270 h1        1 MOL      0.119220
    149 H69         7.8360    0.6840   -3.7140 hc        1 MOL      0.069186
    150 H70         7.3710   -0.8560   -4.3530 hc        1 MOL      0.069186
    151 H71         6.1300    0.1050   -3.6280 hc        1 MOL      0.069186
    152 N14         5.9020   -0.2460   -0.4870 n         1 MOL     -0.080100
    153 C49         5.5090    0.6280    0.6700 c3        1 MOL     -0.077219
    154 C50         6.1860    0.1890    1.9400 c         1 MOL      0.462957
    155 O20         6.5870    1.0080    2.8000 o         1 MOL     -0.545670
    156 C51         3.9640    0.6450    0.6850 c3        1 MOL      0.125829
    157 C52         3.3180    1.1320   -0.6470 c3        1 MOL      0.038705
    158 C53         1.8990    0.7140   -0.7600 c         1 MOL      0.741397
    159 O21         0.9720    1.4990   -0.4400 o         1 MOL     -0.722746
    160 O22         1.5710   -0.3970   -1.2960 o         1 MOL     -0.722746
    161 H72         5.4200   -1.0970   -0.7200 hn        1 MOL      0.098505
    162 H73         5.8050    1.6630    0.4960 h1        1 MOL      0.067866
    163 H74         3.6490    1.2710    1.5210 hc        1 MOL      0.000880
    164 H75         3.5120   -0.3290    0.8320 hc        1 MOL      0.000880
    165 H76         3.8180    0.6600   -1.4950 hc        1 MOL     -0.073572
    166 H77         3.5400    2.1950   -0.7670 hc        1 MOL     -0.073572
    167 N15         6.3930   -1.1170    2.1600 n         1 MOL     -0.088267
    168 C54         7.2210   -1.6530    3.2280 c3        1 MOL     -0.254354
    169 H78         6.5900   -1.9280    4.0730 h1        1 MOL      0.107156
    170 H79         7.7520   -2.5350    2.8690 h1        1 MOL      0.107156
    171 H80         7.9420   -0.8980    3.5430 h1        1 MOL      0.107156
    172 H81         6.0820   -1.7380    1.4230 hn        1 MOL      0.128534
    173 Ca1        -1.0860    0.3660   -1.5470 Ca        1 MOL      1.727050
    174 O23        -0.6430   -1.5470   -3.1170 oh        1 MOL     -0.852751
    175 H82         0.1040   -1.5420   -3.7070 ho        1 MOL      0.398305
    176 H83        -1.4050   -1.4980   -3.6900 ho        1 MOL      0.398305
    177 O24         0.6500    1.2820   -3.7300 oh        1 MOL     -0.852751
    178 H84         0.1170    1.5760   -4.4720 ho        1 MOL      0.398305
    179 H85         1.4990    1.0740   -4.1070 ho        1 MOL      0.398305
    180 O25        -2.1630    0.7340   -4.4520 oh        1 MOL     -0.852751
    181 H86        -2.6020    0.5660   -5.2960 ho        1 MOL      0.398305
    182 H87        -2.1700    1.6860   -4.3680 ho        1 MOL      0.398305
@<TRIPOS>BOND
     1    1    2 1   
     2    1    4 1   
     3    1    5 1   
     4    1    6 1   
     5    2    3 2   
     6    2    7 1   
     7    7    8 1   
     8    7   15 1   
     9    8    9 1   
    10    8   11 1   
    11    8   16 1   
    12    9   10 2   
    13    9   19 1   
    14   11   12 1   
    15   11   17 1   
    16   11   18 1   
    17   12   13 1   
    18   12   14 1   
    19   19   20 1   
    20   19   28 1   
    21   20   21 1   
    22   20   23 1   
    23   20   29 1   
    24   21   22 2   
    25   21   41 1   
    26   23   24 1   
    27   23   30 1   
    28   23   31 1   
    29   24   25 1   
    30   24   32 1   
    31   24   33 1   
    32   25   26 1   
    33   25   34 1   
    34   25   35 1   
    35   26   27 1   
    36   26   36 1   
    37   26   37 1   
    38   27   38 1   
    39   27   39 1   
    40   27   40 1   
    41   41   42 1   
    42   41   49 1   
    43   42   43 1   
    44   42   45 1   
    45   42   50 1   
    46   43   44 2   
    47   43   53 1   
    48   45   46 1   
    49   45   51 1   
    50   45   52 1   
    51   46   47 1   
    52   46   48 1   
    53   53   54 1   
    54   53   57 1   
    55   54   55 1   
    56   54   58 1   
    57   54   59 1   
    58   55   56 2   
    59   55   60 1   
    60   60   61 1   
    61   60   68 1   
    62   61   62 1   
    63   61   64 1   
    64   61   69 1   
    65   62   63 2   
    66   62   74 1   
    67   64   65 1   
    68   64   70 1   
    69   64   71 1   
    70   65   66 1   
    71   65   67 2   
    72   66   72 1   
    73   66   73 1   
    74   74   75 1   
    75   74   78 1   
    76   75   76 1   
    77   75   79 1   
    78   75   80 1   
    79   76   77 2   
    80   76   81 1   
    81   81   82 1   
    82   81   93 1   
    83   82   83 1   
    84   82   85 1   
    85   82   94 1   
    86   83   84 2   
    87   83  102 1   
    88   85   86 1   
    89   85   95 1   
    90   85   96 1   
    91   86   87 ar  
    92   86   88 ar  
    93   87   89 ar  
    94   87   97 1   
    95   88   90 ar  
    96   88   98 1   
    97   89   91 ar  
    98   89   99 1   
    99   90   91 ar  
   100   90  100 1   
   101   91   92 1   
   102   92  101 1   
   103  102  103 1   
   104  102  110 1   
   105  103  104 1   
   106  103  106 1   
   107  103  111 1   
   108  104  105 2   
   109  104  121 1   
   110  106  107 1   
   111  106  108 1   
   112  106  112 1   
   113  107  109 1   
   114  107  113 1   
   115  107  114 1   
   116  108  115 1   
   117  108  116 1   
   118  108  117 1   
   119  109  118 1   
   120  109  119 1   
   121  109  120 1   
   122  121  122 1   
   123  121  127 1   
   124  122  123 1   
   125  122  125 1   
   126  122  128 1   
   127  123  124 2   
   128  123  132 1   
   129  125  126 1   
   130  125  129 1   
   131  125  130 1   
   132  126  131 1   
   133  132  133 1   
   134  132  137 1   
   135  133  134 1   
   136  133  136 1   
   137  133  138 1   
   138  134  135 2   
   139  134  142 1   
   140  136  139 1   
   141  136  140 1   
   142  136  141 1   
   143  142  143 1   
   144  142  147 1   
   145  143  144 1   
   146  143  146 1   
   147  143  148 1   
   148  144  145 2   
   149  144  152 1   
   150  146  149 1   
   151  146  150 1   
   152  146  151 1   
   153  152  153 1   
   154  152  161 1   
   155  153  154 1   
   156  153  156 1   
   157  153  162 1   
   158  154  155 2   
   159  154  167 1   
   160  156  157 1   
   161  156  163 1   
   162  156  164 1   
   163  157  158 1   
   164  157  165 1   
   165  157  166 1   
   166  158  159 1   
   167  158  160 1   
   168  167  168 1   
   169  167  172 1   
   170  168  169 1   
   171  168  170 1   
   172  168  171 1   
   173  174  175 1   
   174  174  176 1   
   175  177  178 1   
   176  177  179 1   
   177  180  181 1   
   178  180  182 1   
@<TRIPOS>SUBSTRUCTURE
     1 MOL         1 TEMP              0 ****  ****    0 ROOT
