@<TRIPOS>MOLECULE
MOL
  176   174     1     0     0
SMALL
resp


@<TRIPOS>ATOM
      1 C1          0.7580    3.7140    6.3820 c3        1 MOL     -0.188300
      2 C2          0.5380    3.0440    4.9550 c         1 MOL      0.663561
      3 O1          1.5500    2.6610    4.3680 o         1 MOL     -0.554186
      4 H1          1.8250    3.8410    6.5620 hc        1 MOL      0.047692
      5 H2          0.2670    4.6860    6.4070 hc        1 MOL      0.047692
      6 H3          0.3340    3.0720    7.1550 hc        1 MOL      0.047692
      7 N1         -0.6530    3.1630    4.3690 n         1 MOL     -0.566627
      8 C3         -1.0340    2.8520    2.9770 c3        1 MOL      0.030086
      9 C4         -1.1070    4.0780    2.1330 c         1 MOL      0.749480
     10 O2         -1.4100    5.1530    2.6410 o         1 MOL     -0.598551
     11 C5         -2.4180    2.0970    3.0470 c3        1 MOL     -0.296667
     12 C6         -2.7390    1.3200    1.7850 c         1 MOL      0.817053
     13 O3         -3.6730    0.4770    1.8770 o         1 MOL     -0.752555
     14 O4         -2.1320    1.5350    0.7410 o         1 MOL     -0.752555
     15 H4         -1.4170    3.3390    5.0020 hn        1 MOL      0.296939
     16 H5         -0.2290    2.2070    2.6240 h1        1 MOL      0.074692
     17 H6         -3.1710    2.8580    3.2680 hc        1 MOL      0.095769
     18 H7         -2.5200    1.3940    3.8720 hc        1 MOL      0.095769
     19 N2         -0.6470    4.0820    0.8580 n         1 MOL     -0.512452
     20 C7         -0.4680    5.2310   -0.1060 c3        1 MOL      0.046149
     21 C8         -1.6990    5.3210   -1.0720 c         1 MOL      0.454878
     22 O5         -2.0940    6.4620   -1.3480 o         1 MOL     -0.541260
     23 C9          0.8850    5.0630   -0.7820 c3        1 MOL      0.094758
     24 C10         1.2770    6.3090   -1.5290 c3        1 MOL     -0.331416
     25 C11         2.5620    5.9540   -2.2450 c3        1 MOL      0.092809
     26 C12         3.1990    7.1450   -3.0730 c3        1 MOL      0.003201
     27 N3          4.6080    6.9010   -3.3680 n4        1 MOL     -0.422778
     28 H8         -0.3920    3.1740    0.5250 hn        1 MOL      0.197079
     29 H9         -0.5060    6.2040    0.3830 h1        1 MOL      0.101505
     30 H10         0.8800    4.1690   -1.4060 hc        1 MOL      0.039369
     31 H11         1.6290    4.9250    0.0110 hc        1 MOL      0.039369
     32 H12         1.3590    7.1680   -0.8680 hc        1 MOL      0.096360
     33 H13         0.4830    6.5220   -2.2440 hc        1 MOL      0.096360
     34 H14         2.3270    5.2000   -2.9950 hc        1 MOL      0.029245
     35 H15         3.3100    5.4030   -1.6660 hc        1 MOL      0.029245
     36 H16         3.1330    8.0150   -2.4270 hx        1 MOL      0.089116
     37 H17         2.5440    7.2980   -3.9240 hx        1 MOL      0.089116
     38 H18         5.0880    6.9910   -2.4910 hn        1 MOL      0.350736
     39 H19         4.7380    5.9840   -3.7720 hn        1 MOL      0.350736
     40 H20         4.9780    7.5880   -4.0090 hn        1 MOL      0.350736
     41 N4         -2.3060    4.2000   -1.4060 n         1 MOL     -0.315139
     42 C13        -3.5950    4.2120   -2.0350 c3        1 MOL      0.093851
     43 C14        -4.7990    4.0410   -1.0700 c         1 MOL      0.501956
     44 O6         -5.8130    4.7020   -1.2640 o         1 MOL     -0.573377
     45 C15        -3.6700    3.2220   -3.2030 c3        1 MOL     -0.160921
     46 C16        -3.2150    1.8030   -2.8690 c         1 MOL      0.603216
     47 O7         -3.6550    1.3260   -1.7460 o         1 MOL     -0.715973
     48 O8         -2.1630    1.2410   -3.2570 o         1 MOL     -0.715973
     49 H21        -1.8510    3.3270   -1.1600 hn        1 MOL      0.304223
     50 H22        -3.7940    5.2090   -2.4330 h1        1 MOL      0.063234
     51 H23        -3.0670    3.5770   -4.0360 hc        1 MOL      0.050794
     52 H24        -4.6900    3.1920   -3.5700 hc        1 MOL      0.050794
     53 N5         -4.6520    3.2710   -0.0420 n         1 MOL     -0.093928
     54 C17        -5.7520    3.0200    0.8470 c3        1 MOL     -0.236964
     55 C18        -6.4850    1.7420    0.4860 c         1 MOL      0.594635
     56 O9         -7.5700    1.5480    1.0250 o         1 MOL     -0.621715
     57 H25        -3.7680    2.8560    0.2220 hn        1 MOL      0.029620
     58 H26        -6.4190    3.8890    0.8410 h1        1 MOL      0.123408
     59 H27        -5.2390    2.9450    1.8050 h1        1 MOL      0.123408
     60 N6         -6.0010    0.8910   -0.3540 n         1 MOL     -0.249949
     61 C19        -6.6560   -0.3440   -0.8570 c3        1 MOL     -0.021032
     62 C20        -6.6540   -1.5430    0.1150 c         1 MOL      0.352593
     63 O10        -7.1260   -2.6160   -0.2250 o         1 MOL     -0.469669
     64 C21        -6.1380   -0.8100   -2.2430 c3        1 MOL     -0.255476
     65 C22        -4.7260   -1.4380   -2.2890 c         1 MOL      0.788650
     66 N7         -4.3720   -1.9580   -3.3450 n         1 MOL     -0.700400
     67 O11        -3.9650   -1.4830   -1.3200 o         1 MOL     -0.614334
     68 H28        -5.0420    1.0840   -0.5990 hn        1 MOL      0.165556
     69 H29        -7.6710    0.0110   -1.0390 h1        1 MOL      0.129229
     70 H30        -6.3190   -0.0190   -2.9720 hc        1 MOL      0.086764
     71 H31        -6.7800   -1.6600   -2.4850 hc        1 MOL      0.086764
     72 H32        -4.8840   -1.8700   -4.2100 hn        1 MOL      0.322576
     73 H33        -3.5060   -2.4570   -3.4990 hn        1 MOL      0.322576
     74 N8         -6.0970   -1.4640    1.3500 n         1 MOL     -0.230832
     75 C23        -6.1530   -2.6080    2.2980 c3        1 MOL     -0.107992
     76 C24        -4.8920   -3.4500    2.4600 c         1 MOL      0.514352
     77 O12        -4.9690   -4.3680    3.2540 o         1 MOL     -0.584041
     78 H34        -5.7840   -0.6010    1.7570 hn        1 MOL      0.292606
     79 H35        -6.9400   -3.3220    2.0510 h1        1 MOL      0.088352
     80 H36        -6.4030   -2.1560    3.2600 h1        1 MOL      0.088352
     81 N9         -3.8340   -3.1860    1.7480 n         1 MOL     -0.052376
     82 C25        -2.5530   -3.8770    1.9210 c3        1 MOL     -0.115119
     83 C26        -1.4350   -2.9570    1.4870 c         1 MOL      0.499352
     84 O13        -1.6910   -1.8800    0.8910 o         1 MOL     -0.499954
     85 C27        -2.5720   -5.2470    1.1220 c3        1 MOL     -0.213204
     86 C28        -2.9110   -5.1200   -0.3680 ca        1 MOL      0.214326
     87 C29        -1.8660   -5.4220   -1.2640 ca        1 MOL     -0.293501
     88 C30        -4.2210   -5.1600   -0.8820 ca        1 MOL     -0.293501
     89 C31        -2.0800   -5.4800   -2.6580 ca        1 MOL     -0.041194
     90 C32        -4.4380   -5.4260   -2.2490 ca        1 MOL     -0.041194
     91 C33        -3.3330   -5.3830   -3.1480 ca        1 MOL      0.070506
     92 O14        -3.6560   -5.4360   -4.4820 oh        1 MOL     -0.432251
     93 H37        -3.7760   -2.3390    1.1940 hn        1 MOL      0.085829
     94 H38        -2.3520   -4.1370    2.9650 h1        1 MOL      0.086931
     95 H39        -3.4080   -5.7320    1.6330 hc        1 MOL      0.100513
     96 H40        -1.6710   -5.8280    1.2760 hc        1 MOL      0.100513
     97 H41        -0.8280   -5.4980   -0.9900 ha        1 MOL      0.168498
     98 H42        -5.1590   -5.0100   -0.3620 ha        1 MOL      0.168498
     99 H43        -1.2000   -5.6010   -3.2760 ha        1 MOL      0.104224
    100 H44        -5.4510   -5.5730   -2.6000 ha        1 MOL      0.104224
    101 H45        -2.9280   -5.3970   -5.1060 ho        1 MOL      0.346318
    102 N10        -0.2240   -3.3370    1.9250 n         1 MOL     -0.343347
    103 C34         1.0300   -2.6830    1.6040 c3        1 MOL     -0.031359
    104 C35         2.0250   -3.7070    1.0660 c         1 MOL      0.352754
    105 O15         1.8270   -4.8670    1.4570 o         1 MOL     -0.533664
    106 C36         1.7090   -1.8510    2.7140 c3        1 MOL      0.098234
    107 C37         2.3990   -2.4870    3.9430 c3        1 MOL     -0.021630
    108 C38         0.6720   -0.8040    3.1880 c3        1 MOL     -0.139557
    109 C39         3.6550   -1.6530    4.3770 c3        1 MOL     -0.063402
    110 H46        -0.0910   -4.1170    2.5490 hn        1 MOL      0.302973
    111 H47         0.7970   -2.0670    0.7430 h1        1 MOL      0.059752
    112 H48         2.5440   -1.3210    2.2640 hc        1 MOL     -0.062013
    113 H49         2.9130   -3.3820    3.6140 hc        1 MOL      0.014543
    114 H50         1.6230   -2.6370    4.6930 hc        1 MOL      0.014543
    115 H51         0.1700   -0.3420    2.3370 hc        1 MOL      0.044779
    116 H52        -0.1370   -1.2170    3.7810 hc        1 MOL      0.044779
    117 H53         1.1360   -0.0270    3.8060 hc        1 MOL      0.044779
    118 H54         3.3990   -0.7460    4.9180 hc        1 MOL      0.019130
    119 H55         4.0930   -2.2950    5.1390 hc        1 MOL      0.019130
    120 H56         4.2590   -1.5950    3.4670 hc        1 MOL      0.019130
    121 N11         3.1020   -3.3230    0.3560 n         1 MOL     -0.045466
    122 C40         4.2960   -3.9750   -0.1200 c3        1 MOL     -0.013220
    123 C41         5.5580   -3.0740   -0.0350 c         1 MOL      0.438679
    124 O16         5.4410   -1.9310    0.4860 o         1 MOL     -0.387068
    125 C42         4.0850   -4.4400   -1.5860 c3        1 MOL      0.036042
    126 O17         4.2770   -3.3430   -2.4830 oh        1 MOL     -0.580091
    127 H57         3.1580   -2.3360    0.1660 hn        1 MOL      0.081474
    128 H58         4.4580   -4.8570    0.5040 h1        1 MOL      0.053913
    129 H59         3.0740   -4.8250   -1.7070 h1        1 MOL      0.056665
    130 H60         4.8320   -5.2210   -1.7560 h1        1 MOL      0.056665
    131 H61         3.4210   -2.9060   -2.5480 ho        1 MOL      0.413146
    132 N12         6.6860   -3.6190   -0.4330 n         1 MOL     -0.456562
    133 C43         8.0090   -2.9840   -0.3100 c3        1 MOL      0.101896
    134 C44         8.1040   -1.5680   -0.7730 c         1 MOL      0.496990
    135 O18         8.6220   -0.7630   -0.0730 o         1 MOL     -0.497235
    136 C45         9.1620   -3.8550   -0.8450 c3        1 MOL     -0.412136
    137 H62         6.5780   -4.5340   -0.8600 hn        1 MOL      0.331888
    138 H63         8.2200   -2.9710    0.7590 h1        1 MOL      0.099048
    139 H64         9.3780   -4.7670   -0.2930 hc        1 MOL      0.129873
    140 H65         8.9400   -4.2510   -1.8380 hc        1 MOL      0.129873
    141 H66        10.0900   -3.2810   -0.8330 hc        1 MOL      0.129873
    142 N13         7.5330   -1.2220   -1.9300 n         1 MOL     -0.386754
    143 C46         7.4990    0.1890   -2.3390 c3        1 MOL     -0.021062
    144 C47         6.5800    1.1420   -1.5010 c         1 MOL      0.391536
    145 O19         6.8080    2.3180   -1.3630 o         1 MOL     -0.517779
    146 C48         7.0340    0.3470   -3.8150 c3        1 MOL     -0.199533
    147 H67         7.2470   -2.0120   -2.5020 hn        1 MOL      0.276625
    148 H68         8.5300    0.5220   -2.1870 h1        1 MOL      0.127240
    149 H69         7.1020    1.3110   -4.3050 hc        1 MOL      0.068792
    150 H70         7.5780   -0.3370   -4.4710 hc        1 MOL      0.068792
    151 H71         5.9870    0.0390   -3.8610 hc        1 MOL      0.068792
    152 N14         5.5430    0.5590   -0.8260 n         1 MOL     -0.135787
    153 C49         4.7370    1.3040    0.1250 c3        1 MOL     -0.111359
    154 C50         5.3230    1.4400    1.5030 c         1 MOL      0.443309
    155 O20         5.1000    2.4460    2.1220 o         1 MOL     -0.528488
    156 C51         3.3570    0.6800    0.1400 c3        1 MOL     -0.027671
    157 C52         2.7170    0.9280   -1.1600 c3        1 MOL     -0.123172
    158 C53         1.2200    0.6610   -1.1520 c         1 MOL      0.729130
    159 O21         0.8470   -0.5450   -1.1250 o         1 MOL     -0.711545
    160 O22         0.4500    1.6180   -1.2840 o         1 MOL     -0.711545
    161 H72         5.3180   -0.4080   -0.9910 hn        1 MOL      0.191510
    162 H73         4.7010    2.3480   -0.1780 h1        1 MOL      0.118898
    163 H74         2.7910    1.2630    0.8750 hc        1 MOL      0.060223
    164 H75         3.2770   -0.3940    0.3490 hc        1 MOL      0.060223
    165 H76         3.1550    0.1860   -1.8260 hc        1 MOL     -0.012590
    166 H77         2.9450    1.9320   -1.5060 hc        1 MOL     -0.012590
    167 N15         6.1710    0.5130    1.9830 n         1 MOL     -0.088612
    168 C54         6.9560    0.6680    3.1520 c3        1 MOL     -0.132435
    169 H78         8.0130    0.6740    2.8820 h1        1 MOL      0.061878
    170 H79         6.7010    1.6100    3.6390 h1        1 MOL      0.061878
    171 H80         6.7600   -0.1600    3.8340 h1        1 MOL      0.061878
    172 H81         6.4340   -0.2060    1.3340 hn        1 MOL      0.127508
    173 Ca1        -1.7260   -0.1590   -1.0110 Ca        1 MOL      1.704013
    174 O23        -1.0840   -2.4850   -2.2710 oh        1 MOL     -0.795724
    175 H82        -1.1090   -2.6000   -3.2280 ho        1 MOL      0.356770
    176 H83        -1.3240   -3.3400   -1.9200 ho        1 MOL      0.356770
@<TRIPOS>BOND
     1    1    2 1   
     2    1    4 1   
     3    1    5 1   
     4    1    6 1   
     5    2    3 2   
     6    2    7 1   
     7    7    8 1   
     8    7   15 1   
     9    8    9 1   
    10    8   11 1   
    11    8   16 1   
    12    9   10 2   
    13    9   19 1   
    14   11   12 1   
    15   11   17 1   
    16   11   18 1   
    17   12   13 1   
    18   12   14 1   
    19   19   20 1   
    20   19   28 1   
    21   20   21 1   
    22   20   23 1   
    23   20   29 1   
    24   21   22 2   
    25   21   41 1   
    26   23   24 1   
    27   23   30 1   
    28   23   31 1   
    29   24   25 1   
    30   24   32 1   
    31   24   33 1   
    32   25   26 1   
    33   25   34 1   
    34   25   35 1   
    35   26   27 1   
    36   26   36 1   
    37   26   37 1   
    38   27   38 1   
    39   27   39 1   
    40   27   40 1   
    41   41   42 1   
    42   41   49 1   
    43   42   43 1   
    44   42   45 1   
    45   42   50 1   
    46   43   44 2   
    47   43   53 1   
    48   45   46 1   
    49   45   51 1   
    50   45   52 1   
    51   46   47 1   
    52   46   48 1   
    53   53   54 1   
    54   53   57 1   
    55   54   55 1   
    56   54   58 1   
    57   54   59 1   
    58   55   56 2   
    59   55   60 1   
    60   60   61 1   
    61   60   68 1   
    62   61   62 1   
    63   61   64 1   
    64   61   69 1   
    65   62   63 2   
    66   62   74 1   
    67   64   65 1   
    68   64   70 1   
    69   64   71 1   
    70   65   66 1   
    71   65   67 2   
    72   66   72 1   
    73   66   73 1   
    74   74   75 1   
    75   74   78 1   
    76   75   76 1   
    77   75   79 1   
    78   75   80 1   
    79   76   77 2   
    80   76   81 1   
    81   81   82 1   
    82   81   93 1   
    83   82   83 1   
    84   82   85 1   
    85   82   94 1   
    86   83   84 2   
    87   83  102 1   
    88   85   86 1   
    89   85   95 1   
    90   85   96 1   
    91   86   87 ar  
    92   86   88 ar  
    93   87   89 ar  
    94   87   97 1   
    95   88   90 ar  
    96   88   98 1   
    97   89   91 ar  
    98   89   99 1   
    99   90   91 ar  
   100   90  100 1   
   101   91   92 1   
   102   92  101 1   
   103  102  103 1   
   104  102  110 1   
   105  103  104 1   
   106  103  106 1   
   107  103  111 1   
   108  104  105 2   
   109  104  121 1   
   110  106  107 1   
   111  106  108 1   
   112  106  112 1   
   113  107  109 1   
   114  107  113 1   
   115  107  114 1   
   116  108  115 1   
   117  108  116 1   
   118  108  117 1   
   119  109  118 1   
   120  109  119 1   
   121  109  120 1   
   122  121  122 1   
   123  121  127 1   
   124  122  123 1   
   125  122  125 1   
   126  122  128 1   
   127  123  124 2   
   128  123  132 1   
   129  125  126 1   
   130  125  129 1   
   131  125  130 1   
   132  126  131 1   
   133  132  133 1   
   134  132  137 1   
   135  133  134 1   
   136  133  136 1   
   137  133  138 1   
   138  134  135 2   
   139  134  142 1   
   140  136  139 1   
   141  136  140 1   
   142  136  141 1   
   143  142  143 1   
   144  142  147 1   
   145  143  144 1   
   146  143  146 1   
   147  143  148 1   
   148  144  145 2   
   149  144  152 1   
   150  146  149 1   
   151  146  150 1   
   152  146  151 1   
   153  152  153 1   
   154  152  161 1   
   155  153  154 1   
   156  153  156 1   
   157  153  162 1   
   158  154  155 2   
   159  154  167 1   
   160  156  157 1   
   161  156  163 1   
   162  156  164 1   
   163  157  158 1   
   164  157  165 1   
   165  157  166 1   
   166  158  159 1   
   167  158  160 1   
   168  167  168 1   
   169  167  172 1   
   170  168  169 1   
   171  168  170 1   
   172  168  171 1   
   173  174  175 1   
   174  174  176 1   
@<TRIPOS>SUBSTRUCTURE
     1 MOL         1 TEMP              0 ****  ****    0 ROOT
