@<TRIPOS>MOLECULE
MOL
  189   185     1     0     0
SMALL
resp


@<TRIPOS>ATOM
      1 C1         -0.7840    2.5810    5.8740 c3        1 MOL     -0.298895
      2 C2         -0.9060    2.4580    4.3620 c         1 MOL      0.600330
      3 O1          0.0730    2.7860    3.7020 o         1 MOL     -0.600332
      4 H1         -0.3890    3.5650    6.1270 hc        1 MOL      0.069438
      5 H2         -1.7660    2.4560    6.3300 hc        1 MOL      0.069438
      6 H3         -0.1090    1.8120    6.2490 hc        1 MOL      0.069438
      7 N1         -2.0080    1.8190    3.9710 n         1 MOL     -0.443224
      8 C3         -2.4690    1.6600    2.5690 c3        1 MOL      0.105473
      9 C4         -2.8260    2.9750    1.9090 c         1 MOL      0.495684
     10 O2         -3.9050    3.5040    2.1160 o         1 MOL     -0.478222
     11 C5         -3.5980    0.6710    2.6220 c3        1 MOL     -0.396647
     12 C6         -4.4260    0.4840    1.3670 c         1 MOL      0.835029
     13 O3         -3.7710    0.5630    0.3020 o         1 MOL     -0.665417
     14 O4         -5.6460    0.0670    1.4280 o         1 MOL     -0.665417
     15 H4         -2.6570    1.5770    4.7000 hn        1 MOL      0.326100
     16 H5         -1.6620    1.2660    1.9500 h1        1 MOL     -0.043380
     17 H6         -4.3340    1.0140    3.3570 hc        1 MOL      0.081914
     18 H7         -3.2400   -0.3150    2.9290 hc        1 MOL      0.081914
     19 N2         -1.8270    3.5450    1.1510 n         1 MOL     -0.290408
     20 C7         -1.9300    4.9270    0.7050 c3        1 MOL      0.071339
     21 C8         -2.9030    5.1880   -0.4920 c         1 MOL      0.352447
     22 O5         -3.6760    6.1720   -0.4570 o         1 MOL     -0.530025
     23 C9         -0.5190    5.3130    0.2680 c3        1 MOL     -0.268763
     24 C10         0.4670    5.5580    1.4740 c3        1 MOL      0.068222
     25 C11         1.6620    6.4170    0.9600 c3        1 MOL     -0.052547
     26 C12         2.5060    6.7390    2.1880 c3        1 MOL      0.108224
     27 N3          3.4470    7.8810    1.8780 n4        1 MOL     -0.525761
     28 H8         -1.0220    3.0280    0.8420 hn        1 MOL      0.179100
     29 H9         -2.3510    5.5530    1.4830 h1        1 MOL      0.064117
     30 H10        -0.5860    6.2670   -0.2580 hc        1 MOL      0.084475
     31 H11        -0.1430    4.5510   -0.4170 hc        1 MOL      0.084475
     32 H12         0.8470    4.5780    1.7780 hc        1 MOL      0.028092
     33 H13         0.0170    6.1310    2.2830 hc        1 MOL      0.028092
     34 H14         1.2870    7.3100    0.4600 hc        1 MOL      0.032900
     35 H15         2.1790    5.7870    0.2250 hc        1 MOL      0.032900
     36 H16         2.9790    5.8310    2.5750 hx        1 MOL      0.080391
     37 H17         1.8340    6.9600    3.0130 hx        1 MOL      0.080391
     38 H18         3.8000    8.2270    2.7550 hn        1 MOL      0.363094
     39 H19         4.1970    7.6250    1.2450 hn        1 MOL      0.363094
     40 H20         2.8860    8.6790    1.6060 hn        1 MOL      0.363094
     41 N4         -2.8730    4.2550   -1.4330 n         1 MOL     -0.246953
     42 C13        -3.8950    4.1950   -2.5180 c3        1 MOL      0.041034
     43 C14        -5.2850    3.4600   -2.1710 c         1 MOL      0.371749
     44 O6         -6.2310    3.5230   -2.9420 o         1 MOL     -0.487747
     45 C15        -3.3760    3.4680   -3.7910 c3        1 MOL     -0.298732
     46 C16        -2.8740    2.0310   -3.5560 c         1 MOL      0.859962
     47 O7         -2.5840    1.6730   -2.3920 o         1 MOL     -0.713193
     48 O8         -2.4350    1.3760   -4.4750 o         1 MOL     -0.713193
     49 H21        -2.3380    3.4200   -1.2540 hn        1 MOL      0.217544
     50 H22        -4.1670    5.2120   -2.8210 h1        1 MOL      0.092741
     51 H23        -2.4210    3.9340   -4.0740 hc        1 MOL      0.065541
     52 H24        -4.1740    3.4380   -4.5330 hc        1 MOL      0.065541
     53 N5         -5.4170    2.8430   -0.9950 n         1 MOL     -0.072421
     54 C17        -6.7580    2.3520   -0.5420 c3        1 MOL     -0.022713
     55 C18        -7.2610    1.0340   -1.1880 c         1 MOL      0.447237
     56 O9         -8.3010    1.0980   -1.8800 o         1 MOL     -0.558803
     57 H25        -4.6140    2.5740   -0.4490 hn        1 MOL      0.044805
     58 H26        -7.4260    3.1540   -0.8350 h1        1 MOL      0.061844
     59 H27        -6.8600    2.3920    0.5410 h1        1 MOL      0.061844
     60 N6         -6.5290   -0.0950   -1.2210 n         1 MOL     -0.151008
     61 C19        -6.8400   -1.3410   -1.9850 c3        1 MOL     -0.043948
     62 C20        -6.9110   -2.5970   -1.0560 c         1 MOL      0.423272
     63 O10        -6.6790   -3.7500   -1.5260 o         1 MOL     -0.497966
     64 C21        -5.7420   -1.4440   -3.1180 c3        1 MOL      0.056541
     65 C22        -4.3370   -1.5340   -2.6730 c         1 MOL      0.455361
     66 O11        -4.0050   -1.9480   -1.5770 o         1 MOL     -0.590803
     67 O12        -3.3540   -1.2270   -3.3090 o         1 MOL     -0.590803
     68 H28        -5.7420   -0.1470   -0.5890 hn        1 MOL     -0.004303
     69 H29        -7.7670   -1.2990   -2.5690 h1        1 MOL      0.104687
     70 H30        -5.8260   -0.6660   -3.8690 hc        1 MOL      0.036129
     71 H31        -6.1020   -2.3130   -3.6790 hc        1 MOL      0.036129
     72 N7         -7.0390   -2.4480    0.3080 n         1 MOL     -0.412143
     73 C23        -7.0500   -3.5910    1.1810 c3        1 MOL      0.010017
     74 C24        -5.7280   -4.2330    1.5430 c         1 MOL      0.497966
     75 O13        -5.8060   -5.2500    2.2040 o         1 MOL     -0.564577
     76 H32        -7.0920   -1.5690    0.7860 hn        1 MOL      0.328845
     77 H33        -7.8140   -4.2700    0.8120 h1        1 MOL      0.061458
     78 H34        -7.4930   -3.1870    2.0840 h1        1 MOL      0.061458
     79 N8         -4.6310   -3.7290    0.9220 n         1 MOL     -0.274292
     80 C25        -3.2370   -4.3800    0.9710 c3        1 MOL     -0.044226
     81 C26        -2.0950   -3.3310    0.9880 c         1 MOL      0.493317
     82 O14        -2.3630   -2.1630    0.7780 o         1 MOL     -0.533447
     83 C27        -3.0890   -5.2200   -0.3500 c3        1 MOL      0.604631
     84 C28        -3.6950   -6.6220   -0.2610 c3        1 MOL     -0.426545
     85 O15        -3.7290   -4.5930   -1.5160 oh        1 MOL     -0.752400
     86 H35        -4.7020   -2.9020    0.3560 hn        1 MOL      0.175859
     87 H36        -3.1080   -5.0440    1.8250 h1        1 MOL      0.055717
     88 H37        -2.0200   -5.3070   -0.5240 h1        1 MOL     -0.103775
     89 H38        -3.8670   -3.6530   -1.3980 ho        1 MOL      0.538849
     90 H39        -4.7610   -6.4370   -0.4520 hc        1 MOL      0.102916
     91 H40        -3.1190   -7.2410   -0.9380 hc        1 MOL      0.102916
     92 H41        -3.5360   -7.0060    0.7450 hc        1 MOL      0.102916
     93 N9         -0.9230   -3.8310    1.3920 n         1 MOL     -0.449538
     94 C29         0.3300   -3.1790    1.7260 c3        1 MOL      0.289849
     95 C30         1.4500   -3.6550    0.8220 c         1 MOL      0.245020
     96 O16         1.6570   -4.8720    0.6490 o         1 MOL     -0.507445
     97 C31         0.7130   -3.4270    3.2470 c3        1 MOL      0.085183
     98 C32        -0.2320   -2.7380    4.2520 c3        1 MOL     -0.229779
     99 C33         2.1760   -3.1360    3.5490 c3        1 MOL     -0.071818
    100 C34        -0.0880   -1.1480    4.2170 c3        1 MOL      0.306118
    101 H42        -0.9120   -4.8450    1.4800 hn        1 MOL      0.245446
    102 H43         0.2110   -2.1050    1.5820 h1        1 MOL     -0.025243
    103 H44         0.5610   -4.4900    3.4260 hc        1 MOL     -0.000124
    104 H45         0.0340   -3.1180    5.2350 hc        1 MOL      0.044102
    105 H46        -1.2790   -2.9740    4.0310 hc        1 MOL      0.044102
    106 H47         2.8100   -3.7130    2.8760 hc        1 MOL      0.007959
    107 H48         2.4270   -2.1160    3.2760 hc        1 MOL      0.007959
    108 H49         2.5670   -3.3750    4.5460 hc        1 MOL      0.007959
    109 H50         0.8960   -0.8980    4.6200 hc        1 MOL     -0.051474
    110 H51        -0.2370   -0.7360    3.2200 hc        1 MOL     -0.051474
    111 H52        -0.8270   -0.7160    4.8890 hc        1 MOL     -0.051474
    112 N10         2.2230   -2.6960    0.2860 n         1 MOL     -0.048389
    113 C35         3.4440   -3.0440   -0.5440 c3        1 MOL      0.198003
    114 C36         4.8300   -2.9180    0.1950 c         1 MOL      0.273836
    115 O17         4.9460   -2.4220    1.3350 o         1 MOL     -0.311413
    116 C37         3.4010   -2.2490   -1.8950 c3        1 MOL      0.089640
    117 C38         1.9730   -2.1680   -2.6230 c3        1 MOL     -0.194939
    118 O18         3.6850   -0.8910   -1.5660 oh        1 MOL     -0.393747
    119 H53         1.8990   -1.7400    0.3740 hn        1 MOL      0.045794
    120 H54         3.4610   -4.0620   -0.9290 h1        1 MOL      0.036269
    121 H55         4.1200   -2.6730   -2.6030 h1        1 MOL      0.014283
    122 H56         3.7590   -0.4340   -2.4080 ho        1 MOL      0.355807
    123 H57         1.9280   -1.4790   -3.4650 hc        1 MOL      0.054772
    124 H58         1.7830   -3.2090   -2.8950 hc        1 MOL      0.054772
    125 H59         1.1980   -1.7450   -1.9890 hc        1 MOL      0.054772
    126 N11         5.9460   -3.1560   -0.4700 n         1 MOL     -0.292045
    127 C39         7.3070   -2.7160   -0.0370 c3        1 MOL     -0.136113
    128 C40         7.2270   -1.2190    0.3090 c         1 MOL      0.451127
    129 O19         7.5090   -0.7920    1.3880 o         1 MOL     -0.458631
    130 C41         8.3680   -2.8930   -1.1420 c3        1 MOL      0.346735
    131 C42         9.0110   -4.2690   -1.2060 c3        1 MOL     -0.325829
    132 O20         7.8260   -2.6350   -2.4450 oh        1 MOL     -0.563056
    133 H60         5.8380   -3.4660   -1.4290 hn        1 MOL      0.268188
    134 H61         7.5710   -3.3000    0.8520 h1        1 MOL      0.144942
    135 H62         9.0520   -2.0670   -0.9730 h1        1 MOL      0.010244
    136 H63         8.5340   -2.0840   -2.7840 ho        1 MOL      0.327190
    137 H64         8.4980   -4.8640   -1.9570 hc        1 MOL      0.096620
    138 H65        10.0520   -4.1850   -1.5010 hc        1 MOL      0.096620
    139 H66         9.0210   -4.7980   -0.2470 hc        1 MOL      0.096620
    140 N12         6.7490   -0.4230   -0.6780 n         1 MOL     -0.337205
    141 C43         6.7630    0.9820   -0.6850 c3        1 MOL     -0.014767
    142 C44         5.8150    1.6000    0.3440 c         1 MOL      0.401607
    143 O21         5.9440    2.7940    0.6350 o         1 MOL     -0.547640
    144 C45         6.3990    1.4170   -2.0480 c3        1 MOL     -0.071960
    145 C46         7.3380    0.9960   -3.2390 c3        1 MOL      0.125890
    146 C47         7.1310    1.7680   -4.4800 c3        1 MOL      0.040934
    147 C48         7.8300    1.3650   -5.7480 c3        1 MOL     -0.126859
    148 N13         9.2590    1.4550   -5.5950 n4        1 MOL     -0.104557
    149 H67         6.2470   -0.9330   -1.3920 hn        1 MOL      0.184988
    150 H68         7.8040    1.2950   -0.5600 h1        1 MOL      0.108960
    151 H69         6.3890    2.5100   -1.9810 hc        1 MOL      0.030482
    152 H70         5.4110    1.0840   -2.3240 hc        1 MOL      0.030482
    153 H71         7.1220   -0.0720   -3.3620 hc        1 MOL     -0.035388
    154 H72         8.3500    1.2390   -2.9080 hc        1 MOL     -0.035388
    155 H73         7.3790    2.7930   -4.2180 hc        1 MOL      0.021401
    156 H74         6.0560    1.7840   -4.7050 hc        1 MOL      0.021401
    157 H75         7.6170    2.0570   -6.5630 hx        1 MOL      0.120656
    158 H76         7.5580    0.3290   -5.9860 hx        1 MOL      0.120656
    159 H77         9.6730    1.0840   -4.7460 hn        1 MOL      0.207296
    160 H78         9.8090    1.0670   -6.3510 hn        1 MOL      0.207296
    161 H79         9.5340    2.4270   -5.5490 hn        1 MOL      0.207296
    162 N14         4.8960    0.8240    0.9380 n         1 MOL     -0.001339
    163 C49         3.9840    1.2410    2.0200 c3        1 MOL     -0.078805
    164 C50         4.4060    0.6960    3.4430 c         1 MOL      0.435634
    165 O22         4.2020    1.3410    4.4800 o         1 MOL     -0.531365
    166 C51         2.6040    0.7080    1.6800 c3        1 MOL      0.238729
    167 C52         1.9530    1.6220    0.6260 c3        1 MOL      0.044176
    168 C53         0.5840    1.2200    0.1810 c         1 MOL      0.682757
    169 O23         0.2110    0.0010    0.1770 o         1 MOL     -0.697124
    170 O24        -0.0790    2.0930   -0.4580 o         1 MOL     -0.697124
    171 H80         4.8120   -0.1290    0.6380 hn        1 MOL     -0.121184
    172 H81         3.9300    2.3330    2.0400 h1        1 MOL      0.075061
    173 H82         2.0030    0.7650    2.5790 hc        1 MOL     -0.017552
    174 H83         2.4940   -0.3470    1.4390 hc        1 MOL     -0.017552
    175 H84         2.5760    1.6280   -0.2620 hc        1 MOL     -0.029171
    176 H85         1.9550    2.6690    0.9480 hc        1 MOL     -0.029171
    177 N15         5.1850   -0.4260    3.4620 n         1 MOL     -0.080698
    178 C54         5.7790   -1.0610    4.6120 c3        1 MOL     -0.300865
    179 H86         6.8490   -0.8520    4.6290 h1        1 MOL      0.114129
    180 H87         5.3190   -0.6730    5.5200 h1        1 MOL      0.114129
    181 H88         5.6200   -2.1380    4.5550 h1        1 MOL      0.114129
    182 H89         5.4240   -0.8690    2.5730 hn        1 MOL      0.101617
    183 Ca1        -1.9380   -0.4220   -1.1990 Ca        1 MOL      1.703292
    184 O25        -1.0990   -2.8310   -2.1890 oh        1 MOL     -0.800251
    185 H90        -0.8090   -2.6560   -3.0810 ho        1 MOL      0.387704
    186 H91        -1.7050   -3.5650   -2.2770 ho        1 MOL      0.387704
    187 O26        -0.1950    0.3020   -3.4340 oh        1 MOL     -0.800251
    188 H92        -0.9660    0.5670   -3.9390 ho        1 MOL      0.387704
    189 H93         0.1720    1.1220   -3.1030 ho        1 MOL      0.387704
@<TRIPOS>BOND
     1    1    2 1   
     2    1    4 1   
     3    1    5 1   
     4    1    6 1   
     5    2    3 2   
     6    2    7 1   
     7    7    8 1   
     8    7   15 1   
     9    8    9 1   
    10    8   11 1   
    11    8   16 1   
    12    9   10 2   
    13    9   19 1   
    14   11   12 1   
    15   11   17 1   
    16   11   18 1   
    17   12   13 1   
    18   12   14 1   
    19   19   20 1   
    20   19   28 1   
    21   20   21 1   
    22   20   23 1   
    23   20   29 1   
    24   21   22 2   
    25   21   41 1   
    26   23   24 1   
    27   23   30 1   
    28   23   31 1   
    29   24   25 1   
    30   24   32 1   
    31   24   33 1   
    32   25   26 1   
    33   25   34 1   
    34   25   35 1   
    35   26   27 1   
    36   26   36 1   
    37   26   37 1   
    38   27   38 1   
    39   27   39 1   
    40   27   40 1   
    41   41   42 1   
    42   41   49 1   
    43   42   43 1   
    44   42   45 1   
    45   42   50 1   
    46   43   44 2   
    47   43   53 1   
    48   45   46 1   
    49   45   51 1   
    50   45   52 1   
    51   46   47 1   
    52   46   48 1   
    53   53   54 1   
    54   53   57 1   
    55   54   55 1   
    56   54   58 1   
    57   54   59 1   
    58   55   56 2   
    59   55   60 1   
    60   60   61 1   
    61   60   68 1   
    62   61   62 1   
    63   61   64 1   
    64   61   69 1   
    65   62   63 2   
    66   62   72 1   
    67   64   65 1   
    68   64   70 1   
    69   64   71 1   
    70   65   66 1   
    71   65   67 1   
    72   72   73 1   
    73   72   76 1   
    74   73   74 1   
    75   73   77 1   
    76   73   78 1   
    77   74   75 2   
    78   74   79 1   
    79   79   80 1   
    80   79   86 1   
    81   80   81 1   
    82   80   83 1   
    83   80   87 1   
    84   81   82 2   
    85   81   93 1   
    86   83   84 1   
    87   83   85 1   
    88   83   88 1   
    89   84   90 1   
    90   84   91 1   
    91   84   92 1   
    92   85   89 1   
    93   93   94 1   
    94   93  101 1   
    95   94   95 1   
    96   94   97 1   
    97   94  102 1   
    98   95   96 2   
    99   95  112 1   
   100   97   98 1   
   101   97   99 1   
   102   97  103 1   
   103   98  100 1   
   104   98  104 1   
   105   98  105 1   
   106   99  106 1   
   107   99  107 1   
   108   99  108 1   
   109  100  109 1   
   110  100  110 1   
   111  100  111 1   
   112  112  113 1   
   113  112  119 1   
   114  113  114 1   
   115  113  116 1   
   116  113  120 1   
   117  114  115 2   
   118  114  126 1   
   119  116  117 1   
   120  116  118 1   
   121  116  121 1   
   122  117  123 1   
   123  117  124 1   
   124  117  125 1   
   125  118  122 1   
   126  126  127 1   
   127  126  133 1   
   128  127  128 1   
   129  127  130 1   
   130  127  134 1   
   131  128  129 2   
   132  128  140 1   
   133  130  131 1   
   134  130  132 1   
   135  130  135 1   
   136  131  137 1   
   137  131  138 1   
   138  131  139 1   
   139  132  136 1   
   140  140  141 1   
   141  140  149 1   
   142  141  142 1   
   143  141  144 1   
   144  141  150 1   
   145  142  143 2   
   146  142  162 1   
   147  144  145 1   
   148  144  151 1   
   149  144  152 1   
   150  145  146 1   
   151  145  153 1   
   152  145  154 1   
   153  146  147 1   
   154  146  155 1   
   155  146  156 1   
   156  147  148 1   
   157  147  157 1   
   158  147  158 1   
   159  148  159 1   
   160  148  160 1   
   161  148  161 1   
   162  162  163 1   
   163  162  171 1   
   164  163  164 1   
   165  163  166 1   
   166  163  172 1   
   167  164  165 2   
   168  164  177 1   
   169  166  167 1   
   170  166  173 1   
   171  166  174 1   
   172  167  168 1   
   173  167  175 1   
   174  167  176 1   
   175  168  169 1   
   176  168  170 1   
   177  177  178 1   
   178  177  182 1   
   179  178  179 1   
   180  178  180 1   
   181  178  181 1   
   182  184  185 1   
   183  184  186 1   
   184  187  188 1   
   185  187  189 1   
@<TRIPOS>SUBSTRUCTURE
     1 MOL         1 TEMP              0 ****  ****    0 ROOT
