@<TRIPOS>MOLECULE
MOL
  189   185     1     0     0
SMALL
resp


@<TRIPOS>ATOM
      1 C1          0.2750    3.4060    4.9970 c3        1 MOL     -0.341277
      2 C2         -0.3380    3.1420    3.5680 c         1 MOL      0.816570
      3 O1          0.3340    3.4540    2.5710 o         1 MOL     -0.652533
      4 H1          1.3380    3.6280    4.9010 hc        1 MOL      0.087815
      5 H2         -0.2320    4.2540    5.4590 hc        1 MOL      0.087815
      6 H3          0.1430    2.5200    5.6180 hc        1 MOL      0.087815
      7 N1         -1.4890    2.5560    3.4020 n         1 MOL     -0.658789
      8 C3         -2.1430    2.2040    2.1260 c3        1 MOL      0.216634
      9 C4         -2.7110    3.4450    1.3780 c         1 MOL      0.385326
     10 O2         -3.5650    4.1500    1.8830 o         1 MOL     -0.569202
     11 C5         -3.1870    1.0470    2.2200 c3        1 MOL     -0.162041
     12 C6         -3.8190    0.6360    0.8710 c         1 MOL      0.788690
     13 O3         -3.2210    0.8520   -0.2140 o         1 MOL     -0.741737
     14 O4         -4.8390   -0.0320    0.8650 o         1 MOL     -0.741737
     15 H4         -1.9820    2.3390    4.2520 hn        1 MOL      0.312380
     16 H5         -1.3650    1.8900    1.4300 h1        1 MOL     -0.026600
     17 H6         -3.9770    1.3710    2.8970 hc        1 MOL      0.044099
     18 H7         -2.7460    0.1990    2.7510 hc        1 MOL      0.044099
     19 N2         -2.3260    3.6290    0.1320 n         1 MOL     -0.252677
     20 C7         -2.7550    4.8070   -0.7480 c3        1 MOL      0.004924
     21 C8         -3.6200    4.4160   -1.9590 c         1 MOL      0.444878
     22 O5         -3.9880    5.3350   -2.7050 o         1 MOL     -0.537924
     23 C9         -1.5800    5.7360   -1.0000 c3        1 MOL      0.072951
     24 C10        -0.9930    6.2130    0.3320 c3        1 MOL     -0.113112
     25 C11        -1.8590    7.0830    1.2850 c3        1 MOL     -0.153963
     26 C12        -0.9890    7.6850    2.3480 c3        1 MOL      0.049366
     27 N3         -1.8630    8.2350    3.4440 n4        1 MOL     -0.293417
     28 H8         -1.7380    2.9300   -0.2870 hn        1 MOL      0.279951
     29 H9         -3.4210    5.3950   -0.1070 h1        1 MOL      0.057816
     30 H10        -1.9550    6.6210   -1.5050 hc        1 MOL      0.002012
     31 H11        -0.7620    5.3080   -1.5760 hc        1 MOL      0.002012
     32 H12        -0.0740    6.8040    0.2450 hc        1 MOL      0.069094
     33 H13        -0.7880    5.2910    0.8880 hc        1 MOL      0.069094
     34 H14        -2.6490    6.4560    1.7070 hc        1 MOL      0.076748
     35 H15        -2.4590    7.9000    0.8840 hc        1 MOL      0.076748
     36 H16        -0.4440    8.5600    2.0010 hx        1 MOL      0.076309
     37 H17        -0.2950    6.9170    2.6890 hx        1 MOL      0.076309
     38 H18        -2.4970    8.9600    3.1430 hn        1 MOL      0.302224
     39 H19        -2.4170    7.5200    3.8880 hn        1 MOL      0.302224
     40 H20        -1.3310    8.7030    4.1590 hn        1 MOL      0.302224
     41 N4         -3.9290    3.1360   -2.0130 n         1 MOL     -0.039071
     42 C13        -4.8870    2.5340   -2.9840 c3        1 MOL     -0.357659
     43 C14        -6.2760    2.2680   -2.4070 c         1 MOL      0.565665
     44 O6         -7.2480    2.4570   -3.1690 o         1 MOL     -0.496699
     45 C15        -4.3680    1.3400   -3.6380 c3        1 MOL      0.238154
     46 C16        -2.9320    1.4100   -4.1050 c         1 MOL      0.552837
     47 O7         -2.5640    2.2130   -4.9680 o         1 MOL     -0.605397
     48 O8         -2.0950    0.7060   -3.5330 o         1 MOL     -0.605397
     49 H21        -3.5570    2.4960   -1.3200 hn        1 MOL      0.085608
     50 H22        -5.0400    3.3540   -3.6890 h1        1 MOL      0.135092
     51 H23        -4.9620    1.0610   -4.5080 hc        1 MOL     -0.039418
     52 H24        -4.5070    0.4440   -3.0280 hc        1 MOL     -0.039418
     53 N5         -6.3270    1.8370   -1.1080 n         1 MOL     -0.468729
     54 C17        -7.5190    1.2340   -0.4730 c3        1 MOL     -0.085613
     55 C18        -7.6850   -0.1930   -0.9770 c         1 MOL      0.393724
     56 O9         -8.7970   -0.6150   -1.2960 o         1 MOL     -0.580247
     57 H25        -5.4830    1.7390   -0.5510 hn        1 MOL      0.282692
     58 H26        -8.3830    1.8260   -0.7550 h1        1 MOL      0.099463
     59 H27        -7.4300    1.2120    0.6160 h1        1 MOL      0.099463
     60 N6         -6.6210   -0.9520   -1.1920 n         1 MOL     -0.041677
     61 C19        -6.6720   -2.3820   -1.5950 c3        1 MOL     -0.108814
     62 C20        -6.4630   -3.4250   -0.4080 c         1 MOL      0.400280
     63 O10        -6.3530   -4.5750   -0.7760 o         1 MOL     -0.466453
     64 C21        -5.7030   -2.7430   -2.7180 c3        1 MOL     -0.255873
     65 C22        -4.2830   -2.3170   -2.3820 c         1 MOL      0.730605
     66 O11        -3.5670   -1.9390   -3.3180 o         1 MOL     -0.715807
     67 O12        -3.7990   -2.3570   -1.2070 o         1 MOL     -0.715807
     68 H28        -5.7210   -0.5620   -0.9470 hn        1 MOL      0.261441
     69 H29        -7.6590   -2.6170   -1.9930 h1        1 MOL      0.130511
     70 H30        -6.1530   -2.2240   -3.5590 hc        1 MOL      0.096987
     71 H31        -5.6570   -3.8210   -2.8950 hc        1 MOL      0.096987
     72 N7         -6.5810   -2.9190    0.8310 n         1 MOL     -0.343275
     73 C23        -6.4280   -3.7940    2.0020 c3        1 MOL     -0.086010
     74 C24        -5.0410   -4.4330    2.2690 c         1 MOL      0.422618
     75 O13        -5.0020   -5.3820    3.0410 o         1 MOL     -0.535377
     76 H32        -6.8280   -1.9620    1.0280 hn        1 MOL      0.288448
     77 H33        -7.1590   -4.5970    1.9530 h1        1 MOL      0.090533
     78 H34        -6.8220   -3.2180    2.8430 h1        1 MOL      0.090533
     79 N8         -4.0080   -3.9700    1.6320 n         1 MOL     -0.118216
     80 C25        -2.6310   -4.3970    1.7330 c3        1 MOL     -0.326768
     81 C26        -1.5930   -3.2660    1.6140 c         1 MOL      0.757524
     82 O14        -1.7860   -2.3310    0.8720 o         1 MOL     -0.618322
     83 C27        -2.4080   -5.4130    0.5660 c3        1 MOL      0.407300
     84 C28        -3.3840   -6.6090    0.6430 c3        1 MOL     -0.448972
     85 O15        -2.6300   -4.9010   -0.6680 oh        1 MOL     -0.580399
     86 H35        -4.1150   -3.3370    0.8530 hn        1 MOL      0.162917
     87 H36        -2.5550   -4.8420    2.7290 h1        1 MOL      0.135647
     88 H37        -1.3590   -5.7070    0.6060 h1        1 MOL     -0.020748
     89 H38        -3.0000   -4.0210   -0.6000 ho        1 MOL      0.409837
     90 H39        -3.1030   -7.2430   -0.1960 hc        1 MOL      0.125028
     91 H40        -3.1870   -7.1480    1.5700 hc        1 MOL      0.125028
     92 H41        -4.4190   -6.3790    0.4160 hc        1 MOL      0.125028
     93 N9         -0.4960   -3.3530    2.3940 n         1 MOL     -0.614766
     94 C29         0.6230   -2.3560    2.3310 c3        1 MOL      0.057022
     95 C30         1.8660   -3.0360    1.7810 c         1 MOL      0.585191
     96 O16         2.3100   -4.0300    2.3000 o         1 MOL     -0.571478
     97 C31         0.9320   -1.9480    3.8170 c3        1 MOL      0.256681
     98 C32        -0.3760   -1.3580    4.5190 c3        1 MOL      0.075807
     99 C33         2.1960   -1.0640    3.8930 c3        1 MOL     -0.339911
    100 C34        -0.1350   -1.2110    6.0430 c3        1 MOL     -0.310396
    101 H42        -0.3980   -4.0970    3.0650 hn        1 MOL      0.309567
    102 H43         0.3630   -1.4900    1.7390 h1        1 MOL      0.020623
    103 H44         1.1290   -2.9110    4.2850 hc        1 MOL     -0.015678
    104 H45        -1.3240   -1.8460    4.2930 hc        1 MOL      0.007760
    105 H46        -0.3570   -0.3060    4.2220 hc        1 MOL      0.007760
    106 H47         3.0580   -1.5420    3.4370 hc        1 MOL      0.064418
    107 H48         2.0380   -0.1060    3.4130 hc        1 MOL      0.064418
    108 H49         2.6020   -0.9460    4.9010 hc        1 MOL      0.064418
    109 H50        -0.9560   -0.6770    6.5200 hc        1 MOL      0.067205
    110 H51         0.1220   -2.2180    6.3810 hc        1 MOL      0.067205
    111 H52         0.6850   -0.5160    6.2170 hc        1 MOL      0.067205
    112 N10         2.3540   -2.4660    0.6900 n         1 MOL     -0.290404
    113 C35         3.5300   -2.7970   -0.1230 c3        1 MOL     -0.129401
    114 C36         4.8360   -2.2280    0.3570 c         1 MOL      0.606556
    115 O17         4.8110   -1.1870    1.0950 o         1 MOL     -0.501769
    116 C37         3.4320   -2.2470   -1.6250 c3        1 MOL      0.312776
    117 C38         2.3520   -2.9020   -2.4630 c3        1 MOL     -0.350699
    118 O18         3.1520   -0.8630   -1.6390 oh        1 MOL     -0.598880
    119 H53         1.9000   -1.6460    0.3260 hn        1 MOL      0.194028
    120 H54         3.6880   -3.8720   -0.1780 h1        1 MOL      0.107809
    121 H55         4.3590   -2.3940   -2.1920 h1        1 MOL      0.005519
    122 H56         2.2660   -0.7210   -1.2860 ho        1 MOL      0.398900
    123 H57         2.3700   -2.4700   -3.4660 hc        1 MOL      0.097328
    124 H58         2.5130   -3.9750   -2.4660 hc        1 MOL      0.097328
    125 H59         1.4030   -2.6800   -1.9740 hc        1 MOL      0.097328
    126 N11         6.0320   -2.7200   -0.0360 n         1 MOL     -0.462650
    127 C39         7.3710   -2.2820    0.5260 c3        1 MOL      0.056695
    128 C40         7.5490   -0.7890    0.4640 c         1 MOL      0.179385
    129 O19         8.0980   -0.1520    1.3500 o         1 MOL     -0.452441
    130 C41         8.5230   -2.9640   -0.1540 c3        1 MOL      0.339581
    131 C42         9.7130   -3.2420    0.7730 c3        1 MOL     -0.538332
    132 O20         8.1110   -4.3910   -0.3230 oh        1 MOL     -0.556165
    133 H60         6.0240   -3.5200   -0.6500 hn        1 MOL      0.207561
    134 H61         7.4220   -2.5060    1.5820 h1        1 MOL      0.147179
    135 H62         8.8660   -2.5820   -1.1170 h1        1 MOL      0.002963
    136 H63         8.4150   -4.7290   -1.1690 ho        1 MOL      0.362486
    137 H64         9.3860   -3.8570    1.6160 hc        1 MOL      0.152220
    138 H65        10.4200   -3.8810    0.2420 hc        1 MOL      0.152220
    139 H66        10.2750   -2.3360    0.9890 hc        1 MOL      0.152220
    140 N12         7.1080   -0.2270   -0.6630 n         1 MOL     -0.127390
    141 C43         7.0860    1.2240   -0.9930 c3        1 MOL     -0.000385
    142 C44         5.9880    2.0140   -0.3250 c         1 MOL      0.436635
    143 O21         6.1280    3.1900   -0.1060 o         1 MOL     -0.526575
    144 C45         7.1920    1.4860   -2.4880 c3        1 MOL     -0.256130
    145 C46         8.4820    1.0350   -3.2250 c3        1 MOL      0.217303
    146 C47         8.3440    1.0570   -4.7120 c3        1 MOL      0.065138
    147 C48         9.6560    0.4930   -5.3130 c3        1 MOL     -0.072154
    148 N13        10.8620    1.1650   -4.8260 n4        1 MOL     -0.066588
    149 H67         6.6940   -0.8200   -1.3660 hn        1 MOL      0.222218
    150 H68         7.9920    1.6250   -0.5290 h1        1 MOL      0.093109
    151 H69         7.2300    2.5610   -2.6670 hc        1 MOL      0.079398
    152 H70         6.3550    1.0840   -3.0700 hc        1 MOL      0.079398
    153 H71         8.5390   -0.0150   -2.9430 hc        1 MOL     -0.068833
    154 H72         9.3670    1.5580   -2.8670 hc        1 MOL     -0.068833
    155 H73         8.2150    2.0900   -5.0320 hc        1 MOL      0.027317
    156 H74         7.4500    0.5460   -5.0370 hc        1 MOL      0.027317
    157 H75         9.5050    0.4400   -6.3920 hx        1 MOL      0.074177
    158 H76         9.6860   -0.5450   -4.9810 hx        1 MOL      0.074177
    159 H77        11.1280    0.7650   -3.9420 hn        1 MOL      0.211872
    160 H78        11.5940    0.8310   -5.4520 hn        1 MOL      0.211872
    161 H79        10.9890    2.1720   -4.8120 hn        1 MOL      0.211872
    162 N14         4.8990    1.3720    0.1330 n         1 MOL     -0.031559
    163 C49         3.9410    2.0850    0.9050 c3        1 MOL     -0.249077
    164 C50         4.3820    2.2350    2.3740 c         1 MOL      0.574938
    165 O22         4.0610    3.2140    3.1020 o         1 MOL     -0.570706
    166 C51         2.5560    1.4350    0.9300 c3        1 MOL      0.086088
    167 C52         1.7070    1.8550   -0.2880 c3        1 MOL     -0.162758
    168 C53         0.6010    0.9330   -0.6330 c         1 MOL      0.854654
    169 O23         0.8120   -0.3190   -0.6260 o         1 MOL     -0.766358
    170 O24        -0.4860    1.3880   -0.9920 o         1 MOL     -0.766358
    171 H80         4.7270    0.3990   -0.0630 hn        1 MOL      0.024622
    172 H81         3.7840    3.1060    0.5430 h1        1 MOL      0.117281
    173 H82         2.0960    1.8120    1.8420 hc        1 MOL      0.047847
    174 H83         2.6740    0.3580    1.0260 hc        1 MOL      0.047847
    175 H84         2.2950    1.7810   -1.2010 hc        1 MOL      0.048037
    176 H85         1.3070    2.8530   -0.1420 hc        1 MOL      0.048037
    177 N15         5.1360    1.2080    2.9360 n         1 MOL     -0.282731
    178 C54         6.0250    1.4470    4.0980 c3        1 MOL     -0.196457
    179 H86         7.0470    1.5920    3.7490 h1        1 MOL      0.090197
    180 H87         5.6950    2.3390    4.6310 h1        1 MOL      0.090197
    181 H88         5.9880    0.5880    4.7670 h1        1 MOL      0.090197
    182 H89         5.3900    0.4310    2.3500 hn        1 MOL      0.289086
    183 Ca1        -1.7820   -0.8600   -1.5290 Ca        1 MOL      1.731621
    184 O25        -0.9090   -3.4670   -2.0940 oh        1 MOL     -0.861651
    185 H90        -0.6810   -3.8150   -2.9570 ho        1 MOL      0.402611
    186 H91        -1.4400   -4.1580   -1.6940 ho        1 MOL      0.402611
    187 O26        -0.0760   -1.1060   -3.6840 oh        1 MOL     -0.861651
    188 H92         0.1060   -1.6060   -4.4780 ho        1 MOL      0.402611
    189 H93        -0.2930   -0.2280   -4.0060 ho        1 MOL      0.402611
@<TRIPOS>BOND
     1    1    2 1   
     2    1    4 1   
     3    1    5 1   
     4    1    6 1   
     5    2    3 2   
     6    2    7 1   
     7    7    8 1   
     8    7   15 1   
     9    8    9 1   
    10    8   11 1   
    11    8   16 1   
    12    9   10 2   
    13    9   19 1   
    14   11   12 1   
    15   11   17 1   
    16   11   18 1   
    17   12   13 1   
    18   12   14 1   
    19   19   20 1   
    20   19   28 1   
    21   20   21 1   
    22   20   23 1   
    23   20   29 1   
    24   21   22 2   
    25   21   41 1   
    26   23   24 1   
    27   23   30 1   
    28   23   31 1   
    29   24   25 1   
    30   24   32 1   
    31   24   33 1   
    32   25   26 1   
    33   25   34 1   
    34   25   35 1   
    35   26   27 1   
    36   26   36 1   
    37   26   37 1   
    38   27   38 1   
    39   27   39 1   
    40   27   40 1   
    41   41   42 1   
    42   41   49 1   
    43   42   43 1   
    44   42   45 1   
    45   42   50 1   
    46   43   44 2   
    47   43   53 1   
    48   45   46 1   
    49   45   51 1   
    50   45   52 1   
    51   46   47 1   
    52   46   48 1   
    53   53   54 1   
    54   53   57 1   
    55   54   55 1   
    56   54   58 1   
    57   54   59 1   
    58   55   56 2   
    59   55   60 1   
    60   60   61 1   
    61   60   68 1   
    62   61   62 1   
    63   61   64 1   
    64   61   69 1   
    65   62   63 2   
    66   62   72 1   
    67   64   65 1   
    68   64   70 1   
    69   64   71 1   
    70   65   66 1   
    71   65   67 1   
    72   72   73 1   
    73   72   76 1   
    74   73   74 1   
    75   73   77 1   
    76   73   78 1   
    77   74   75 2   
    78   74   79 1   
    79   79   80 1   
    80   79   86 1   
    81   80   81 1   
    82   80   83 1   
    83   80   87 1   
    84   81   82 2   
    85   81   93 1   
    86   83   84 1   
    87   83   85 1   
    88   83   88 1   
    89   84   90 1   
    90   84   91 1   
    91   84   92 1   
    92   85   89 1   
    93   93   94 1   
    94   93  101 1   
    95   94   95 1   
    96   94   97 1   
    97   94  102 1   
    98   95   96 2   
    99   95  112 1   
   100   97   98 1   
   101   97   99 1   
   102   97  103 1   
   103   98  100 1   
   104   98  104 1   
   105   98  105 1   
   106   99  106 1   
   107   99  107 1   
   108   99  108 1   
   109  100  109 1   
   110  100  110 1   
   111  100  111 1   
   112  112  113 1   
   113  112  119 1   
   114  113  114 1   
   115  113  116 1   
   116  113  120 1   
   117  114  115 2   
   118  114  126 1   
   119  116  117 1   
   120  116  118 1   
   121  116  121 1   
   122  117  123 1   
   123  117  124 1   
   124  117  125 1   
   125  118  122 1   
   126  126  127 1   
   127  126  133 1   
   128  127  128 1   
   129  127  130 1   
   130  127  134 1   
   131  128  129 2   
   132  128  140 1   
   133  130  131 1   
   134  130  132 1   
   135  130  135 1   
   136  131  137 1   
   137  131  138 1   
   138  131  139 1   
   139  132  136 1   
   140  140  141 1   
   141  140  149 1   
   142  141  142 1   
   143  141  144 1   
   144  141  150 1   
   145  142  143 2   
   146  142  162 1   
   147  144  145 1   
   148  144  151 1   
   149  144  152 1   
   150  145  146 1   
   151  145  153 1   
   152  145  154 1   
   153  146  147 1   
   154  146  155 1   
   155  146  156 1   
   156  147  148 1   
   157  147  157 1   
   158  147  158 1   
   159  148  159 1   
   160  148  160 1   
   161  148  161 1   
   162  162  163 1   
   163  162  171 1   
   164  163  164 1   
   165  163  166 1   
   166  163  172 1   
   167  164  165 2   
   168  164  177 1   
   169  166  167 1   
   170  166  173 1   
   171  166  174 1   
   172  167  168 1   
   173  167  175 1   
   174  167  176 1   
   175  168  169 1   
   176  168  170 1   
   177  177  178 1   
   178  177  182 1   
   179  178  179 1   
   180  178  180 1   
   181  178  181 1   
   182  184  185 1   
   183  184  186 1   
   184  187  188 1   
   185  187  189 1   
@<TRIPOS>SUBSTRUCTURE
     1 MOL         1 TEMP              0 ****  ****    0 ROOT
