@<TRIPOS>MOLECULE
MOL
  183   181     1     0     0
SMALL
resp


@<TRIPOS>ATOM
      1 C1         -0.8300    1.4720    6.5480 c3        1 MOL     -0.315681
      2 C2         -1.1780    1.5870    5.0800 c         1 MOL      0.754146
      3 O1         -0.3710    2.2080    4.4040 o         1 MOL     -0.565949
      4 H1         -1.6720    1.0370    7.0870 hc        1 MOL      0.070592
      5 H2          0.0450    0.8340    6.6660 hc        1 MOL      0.070592
      6 H3         -0.6150    2.4620    6.9490 hc        1 MOL      0.070592
      7 N1         -2.3680    1.2070    4.6180 n         1 MOL     -0.756614
      8 C3         -2.8340    1.3850    3.2300 c3        1 MOL      0.468667
      9 C4         -3.3030    2.8690    2.9310 c         1 MOL      0.479249
     10 O2         -3.8620    3.5220    3.7420 o         1 MOL     -0.561547
     11 C5         -4.0100    0.4500    2.9540 c3        1 MOL     -0.514279
     12 C6         -4.6180    0.3640    1.5690 c         1 MOL      0.906390
     13 O3         -5.8110   -0.0240    1.5560 o         1 MOL     -0.697352
     14 O4         -3.9690    0.7100    0.5580 o         1 MOL     -0.697352
     15 H4         -3.0760    0.8530    5.2490 hn        1 MOL      0.350018
     16 H5         -2.0370    1.1430    2.5320 h1        1 MOL     -0.010611
     17 H6         -4.8380    0.7960    3.5640 hc        1 MOL      0.082491
     18 H7         -3.6180   -0.5170    3.3000 hc        1 MOL      0.082491
     19 N2         -3.0530    3.2920    1.6610 n         1 MOL     -0.211516
     20 C7         -3.1740    4.6620    1.2880 c3        1 MOL     -0.113259
     21 C8         -4.1530    4.8410    0.1150 c         1 MOL      0.633508
     22 O5         -4.8020    5.9150    0.0720 o         1 MOL     -0.619986
     23 C9         -1.7200    5.1870    1.0730 c3        1 MOL      0.335518
     24 C10        -0.8700    4.8530    2.3020 c3        1 MOL      0.273506
     25 C11        -1.7730    6.7310    0.6920 c3        1 MOL     -0.399032
     26 C12         0.5290    5.4440    2.0960 c3        1 MOL     -0.243652
     27 H8         -2.5160    2.6720    1.0730 hn        1 MOL      0.004308
     28 H9         -3.5770    5.2810    2.0920 h1        1 MOL      0.054731
     29 H10        -1.2610    4.8050    0.1590 hc        1 MOL     -0.043046
     30 H11        -0.7500    3.7680    2.3760 hc        1 MOL     -0.066733
     31 H12        -1.2780    5.3120    3.1980 hc        1 MOL     -0.066733
     32 H13        -0.8350    7.1200    0.3110 hc        1 MOL      0.073718
     33 H14        -2.3980    6.8270   -0.2100 hc        1 MOL      0.073718
     34 H15        -2.1610    7.3710    1.4820 hc        1 MOL      0.073718
     35 H16         0.9060    5.2820    1.0860 hc        1 MOL      0.037684
     36 H17         0.5260    6.5290    2.2080 hc        1 MOL      0.037684
     37 H18         1.1660    4.9170    2.8130 hc        1 MOL      0.037684
     38 N3         -4.3190    3.8330   -0.7220 n         1 MOL     -0.515869
     39 C13        -5.0750    3.8110   -1.9970 c3        1 MOL      0.242583
     40 C14        -6.2760    2.8870   -2.0640 c         1 MOL      0.407120
     41 O6         -7.0090    2.9170   -2.9740 o         1 MOL     -0.541136
     42 C15        -4.1730    3.6790   -3.2490 c3        1 MOL     -0.367248
     43 C16        -3.1370    2.5620   -3.2050 c         1 MOL      0.908405
     44 O7         -2.1170    2.5820   -3.9130 o         1 MOL     -0.750126
     45 O8         -3.2920    1.6430   -2.4260 o         1 MOL     -0.750126
     46 H19        -3.7340    3.0210   -0.6230 hn        1 MOL      0.341301
     47 H20        -5.4920    4.8190   -2.0120 h1        1 MOL      0.030513
     48 H21        -3.5830    4.5990   -3.2440 hc        1 MOL      0.072523
     49 H22        -4.7630    3.5470   -4.1530 hc        1 MOL      0.072523
     50 N4         -6.4040    2.0550   -1.0600 n         1 MOL     -0.164514
     51 C17        -7.7360    1.3990   -0.7050 c3        1 MOL     -0.029651
     52 C18        -8.0800   -0.0300   -1.2090 c         1 MOL      0.437366
     53 O9         -9.2620   -0.2480   -1.5300 o         1 MOL     -0.600607
     54 H23        -5.6440    1.9310   -0.4050 hn        1 MOL      0.069262
     55 H24        -8.4990    2.0300   -1.1680 h1        1 MOL      0.061145
     56 H25        -7.9580    1.5810    0.3450 h1        1 MOL      0.061145
     57 N5         -7.1490   -0.9350   -1.3500 n         1 MOL     -0.134476
     58 C19        -7.2400   -2.2020   -2.0290 c3        1 MOL      0.045006
     59 C20        -7.2410   -3.4200   -1.0460 c         1 MOL      0.334338
     60 O10        -7.3570   -4.5770   -1.4680 o         1 MOL     -0.497493
     61 C21        -6.0470   -2.2870   -3.0240 c3        1 MOL     -0.209632
     62 C22        -4.7260   -1.8190   -2.4320 c         1 MOL      0.731598
     63 O11        -3.8670   -1.2480   -3.1410 o         1 MOL     -0.750578
     64 O12        -4.4060   -1.8220   -1.1940 o         1 MOL     -0.750578
     65 H26        -6.2010   -0.6610   -1.1560 hn        1 MOL      0.183694
     66 H27        -8.1000   -2.3360   -2.6830 h1        1 MOL      0.086526
     67 H28        -6.3640   -1.5980   -3.8080 hc        1 MOL      0.067303
     68 H29        -5.9100   -3.3000   -3.4020 hc        1 MOL      0.067303
     69 N6         -7.0340   -3.0750    0.2620 n         1 MOL     -0.226403
     70 C23        -6.7560   -4.1200    1.2700 c3        1 MOL     -0.179242
     71 C24        -5.4100   -4.7780    1.2740 c         1 MOL      0.583266
     72 O13        -5.2620   -5.8650    1.7790 o         1 MOL     -0.588594
     73 H30        -6.8520   -2.1170    0.5330 hn        1 MOL      0.205506
     74 H31        -7.5550   -4.8540    1.2180 h1        1 MOL      0.091050
     75 H32        -6.7810   -3.5930    2.2240 h1        1 MOL      0.091050
     76 N7         -4.3630   -4.0950    0.7440 n         1 MOL     -0.218451
     77 C25        -2.9610   -4.4390    0.9380 c3        1 MOL     -0.022729
     78 C26        -2.0490   -3.1770    1.2360 c         1 MOL      0.496947
     79 O14        -2.4010   -2.0390    0.9790 o         1 MOL     -0.583314
     80 C27        -2.4540   -5.3320   -0.2790 c3        1 MOL     -0.289190
     81 C28        -2.6390   -4.7310   -1.6660 c3        1 MOL      0.032928
     82 C29        -1.5960   -3.7270   -2.2310 c         1 MOL      0.441970
     83 N8         -1.1480   -3.8640   -3.4950 n         1 MOL     -0.728533
     84 O15        -1.2300   -2.6700   -1.6860 o         1 MOL     -0.425288
     85 H33        -4.5980   -3.2540    0.2450 hn        1 MOL      0.196740
     86 H34        -2.9340   -5.0250    1.8570 h1        1 MOL      0.054542
     87 H35        -3.0940   -6.2070   -0.3060 hc        1 MOL      0.097579
     88 H36        -1.4220   -5.5870   -0.0320 hc        1 MOL      0.097579
     89 H37        -3.5880   -4.2160   -1.7890 hc        1 MOL      0.037700
     90 H38        -2.7780   -5.5700   -2.3540 hc        1 MOL      0.037700
     91 H39        -1.5630   -4.6390   -3.9980 hn        1 MOL      0.354511
     92 H40        -0.5360   -3.1520   -3.8720 hn        1 MOL      0.354511
     93 N9         -0.8220   -3.5170    1.7790 n         1 MOL     -0.255693
     94 C30         0.2990   -2.6010    2.0510 c3        1 MOL     -0.050210
     95 C31         1.4310   -3.0510    1.1590 c         1 MOL      0.274421
     96 O16         2.1350   -4.0150    1.3850 o         1 MOL     -0.558939
     97 C32         0.6830   -2.6270    3.5720 c3        1 MOL      0.289711
     98 C33         1.7330   -1.6800    3.8340 c3        1 MOL     -0.245060
     99 C34        -0.5650   -2.3120    4.3950 c3        1 MOL     -0.245060
    100 H41        -0.7420   -4.5020    2.0030 hn        1 MOL      0.233759
    101 H42         0.0230   -1.5600    1.8380 h1        1 MOL      0.167347
    102 H43         0.9610   -3.6430    3.8530 hc        1 MOL     -0.034921
    103 H44         1.8320   -1.6740    4.9260 hc        1 MOL      0.040285
    104 H45         2.6910   -2.0280    3.4490 hc        1 MOL      0.040285
    105 H46         1.4890   -0.6810    3.4580 hc        1 MOL      0.040285
    106 H47        -0.9530   -1.3280    4.1280 hc        1 MOL      0.040285
    107 H48        -1.3810   -2.9940    4.1830 hc        1 MOL      0.040285
    108 H49        -0.3670   -2.3940    5.4640 hc        1 MOL      0.040285
    109 N10         1.6560   -2.3470    0.0970 n         1 MOL      0.082670
    110 C35         2.7810   -2.6120   -0.7930 c3        1 MOL      0.114436
    111 C36         4.1020   -2.1060   -0.2440 c         1 MOL      0.378370
    112 O17         4.1730   -1.2840    0.6760 o         1 MOL     -0.289766
    113 C37         2.4480   -2.0430   -2.1500 c3        1 MOL     -0.292111
    114 C38         2.9400   -0.6110   -2.5260 c         1 MOL      0.534129
    115 N11         2.0970    0.3960   -2.4950 n         1 MOL     -0.700443
    116 O18         4.0920   -0.3800   -2.8680 o         1 MOL     -0.524100
    117 H50         0.9420   -1.6970   -0.2000 hn        1 MOL     -0.135435
    118 H51         2.9040   -3.6860   -0.9260 h1        1 MOL      0.023033
    119 H52         1.3980   -2.1690   -2.4070 hc        1 MOL      0.102026
    120 H53         3.0490   -2.6460   -2.8400 hc        1 MOL      0.102026
    121 H54         1.1170    0.2180   -2.3360 hn        1 MOL      0.397718
    122 H55         2.5130    1.2740   -2.7800 hn        1 MOL      0.397718
    123 N12         5.2150   -2.4110   -0.9080 n         1 MOL     -0.542872
    124 C39         6.5240   -1.9890   -0.3790 c3        1 MOL      0.157503
    125 C40         6.8150   -0.4770   -0.3590 c         1 MOL      0.515830
    126 O19         7.5240   -0.0090    0.5340 o         1 MOL     -0.540498
    127 C41         7.6690   -2.7520   -0.9670 c3        1 MOL     -0.238707
    128 C42         9.0570   -2.3090   -0.4890 ca        1 MOL      0.229149
    129 C43         9.6180   -2.7650    0.7250 ca        1 MOL     -0.369208
    130 C44         9.7360   -1.4560   -1.3150 ca        1 MOL     -0.369208
    131 C45        10.8740   -2.2350    1.1120 ca        1 MOL     -0.050388
    132 C46        10.9990   -0.9030   -0.9560 ca        1 MOL     -0.050388
    133 C47        11.6360   -1.3890    0.2250 ca        1 MOL      0.141556
    134 O20        12.8640   -0.9640    0.6070 oh        1 MOL     -0.498216
    135 H56         5.1220   -2.8440   -1.8140 hn        1 MOL      0.319370
    136 H57         6.5500   -2.2840    0.6810 h1        1 MOL      0.097335
    137 H58         7.6970   -2.6770   -2.0540 hc        1 MOL      0.066757
    138 H59         7.5880   -3.8170   -0.7090 hc        1 MOL      0.066757
    139 H60         8.9720   -3.3070    1.4000 ha        1 MOL      0.180900
    140 H61         9.2100   -1.1230   -2.1960 ha        1 MOL      0.180900
    141 H62        11.3020   -2.5800    2.0360 ha        1 MOL      0.105141
    142 H63        11.4310   -0.1560   -1.6130 ha        1 MOL      0.105141
    143 H64        13.2450   -0.3440   -0.0230 ho        1 MOL      0.384115
    144 N13         6.1580    0.3510   -1.1300 n         1 MOL     -0.184766
    145 C48         6.2650    1.8230   -1.0540 c3        1 MOL     -0.263648
    146 C49         5.3570    2.4160    0.0680 c         1 MOL      0.361124
    147 O21         5.6280    3.4960    0.5150 o         1 MOL     -0.512663
    148 C50         5.8310    2.4270   -2.4570 c3        1 MOL      0.346006
    149 C51         6.8660    2.2020   -3.5180 c3        1 MOL     -0.188234
    150 C52         6.6240    3.0170   -4.7700 c         1 MOL      0.646551
    151 O22         5.4950    2.8760   -5.3840 o         1 MOL     -0.722324
    152 O23         7.4200    3.8980   -5.1010 o         1 MOL     -0.722324
    153 H65         5.6790   -0.0750   -1.9050 hn        1 MOL      0.204243
    154 H66         7.2690    2.1580   -0.8220 h1        1 MOL      0.157040
    155 H67         5.6050    3.4740   -2.2720 hc        1 MOL     -0.050011
    156 H68         4.8980    2.0490   -2.8670 hc        1 MOL     -0.050011
    157 H69         6.8490    1.1280   -3.7050 hc        1 MOL     -0.025693
    158 H70         7.8250    2.4120   -3.0360 hc        1 MOL     -0.025693
    159 N14         4.3460    1.6610    0.4580 n         1 MOL     -0.068599
    160 C53         3.4450    1.9200    1.6040 c3        1 MOL     -0.098274
    161 C54         4.1680    1.3780    2.8450 c         1 MOL      0.475578
    162 O24         4.1230    1.9480    3.9340 o         1 MOL     -0.579172
    163 C55         2.0920    1.3210    1.5220 c3        1 MOL      0.188947
    164 C56         1.1870    1.9880    0.4550 c3        1 MOL      0.116174
    165 C57        -0.0710    1.1430    0.1330 c         1 MOL      0.620236
    166 O25        -1.1360    1.6980    0.0130 o         1 MOL     -0.659865
    167 O26        -0.0150   -0.0790   -0.1130 o         1 MOL     -0.659865
    168 H71         4.3920    0.7060    0.1160 hn        1 MOL      0.047296
    169 H72         3.3860    3.0130    1.6030 h1        1 MOL      0.078644
    170 H73         1.5650    1.4270    2.4620 hc        1 MOL     -0.008070
    171 H74         2.0810    0.2400    1.3380 hc        1 MOL     -0.008070
    172 H75         1.8490    2.0580   -0.4160 hc        1 MOL     -0.063349
    173 H76         0.9670    3.0150    0.7620 hc        1 MOL     -0.063349
    174 N15         4.8840    0.2270    2.8170 n         1 MOL     -0.080919
    175 C58         5.8470   -0.2140    3.8530 c3        1 MOL     -0.141011
    176 H77         5.3060   -0.6710    4.6810 h1        1 MOL      0.054636
    177 H78         6.5340   -0.9430    3.4230 h1        1 MOL      0.054636
    178 H79         6.4090    0.6460    4.2160 h1        1 MOL      0.054636
    179 H80         4.8150   -0.4120    2.0370 hn        1 MOL      0.060071
    180 Ca1        -2.3610   -0.3690   -1.1170 Ca        1 MOL      1.710390
    181 O27        -0.9500    0.2830   -3.4080 oh        1 MOL     -0.888819
    182 H81        -1.4250    1.1120   -3.4890 ho        1 MOL      0.416551
    183 H82        -1.1370   -0.1800   -4.2150 ho        1 MOL      0.416551
@<TRIPOS>BOND
     1    1    2 1   
     2    1    4 1   
     3    1    5 1   
     4    1    6 1   
     5    2    3 2   
     6    2    7 1   
     7    7    8 1   
     8    7   15 1   
     9    8    9 1   
    10    8   11 1   
    11    8   16 1   
    12    9   10 2   
    13    9   19 1   
    14   11   12 1   
    15   11   17 1   
    16   11   18 1   
    17   12   13 1   
    18   12   14 1   
    19   19   20 1   
    20   19   27 1   
    21   20   21 1   
    22   20   23 1   
    23   20   28 1   
    24   21   22 2   
    25   21   38 1   
    26   23   24 1   
    27   23   25 1   
    28   23   29 1   
    29   24   26 1   
    30   24   30 1   
    31   24   31 1   
    32   25   32 1   
    33   25   33 1   
    34   25   34 1   
    35   26   35 1   
    36   26   36 1   
    37   26   37 1   
    38   38   39 1   
    39   38   46 1   
    40   39   40 1   
    41   39   42 1   
    42   39   47 1   
    43   40   41 2   
    44   40   50 1   
    45   42   43 1   
    46   42   48 1   
    47   42   49 1   
    48   43   44 1   
    49   43   45 1   
    50   50   51 1   
    51   50   54 1   
    52   51   52 1   
    53   51   55 1   
    54   51   56 1   
    55   52   53 2   
    56   52   57 1   
    57   57   58 1   
    58   57   65 1   
    59   58   59 1   
    60   58   61 1   
    61   58   66 1   
    62   59   60 2   
    63   59   69 1   
    64   61   62 1   
    65   61   67 1   
    66   61   68 1   
    67   62   63 1   
    68   62   64 1   
    69   69   70 1   
    70   69   73 1   
    71   70   71 1   
    72   70   74 1   
    73   70   75 1   
    74   71   72 2   
    75   71   76 1   
    76   76   77 1   
    77   76   85 1   
    78   77   78 1   
    79   77   80 1   
    80   77   86 1   
    81   78   79 2   
    82   78   93 1   
    83   80   81 1   
    84   80   87 1   
    85   80   88 1   
    86   81   82 1   
    87   81   89 1   
    88   81   90 1   
    89   82   83 1   
    90   82   84 2   
    91   83   91 1   
    92   83   92 1   
    93   93   94 1   
    94   93  100 1   
    95   94   95 1   
    96   94   97 1   
    97   94  101 1   
    98   95   96 2   
    99   95  109 1   
   100   97   98 1   
   101   97   99 1   
   102   97  102 1   
   103   98  103 1   
   104   98  104 1   
   105   98  105 1   
   106   99  106 1   
   107   99  107 1   
   108   99  108 1   
   109  109  110 1   
   110  109  117 1   
   111  110  111 1   
   112  110  113 1   
   113  110  118 1   
   114  111  112 2   
   115  111  123 1   
   116  113  114 1   
   117  113  119 1   
   118  113  120 1   
   119  114  115 1   
   120  114  116 2   
   121  115  121 1   
   122  115  122 1   
   123  123  124 1   
   124  123  135 1   
   125  124  125 1   
   126  124  127 1   
   127  124  136 1   
   128  125  126 2   
   129  125  144 1   
   130  127  128 1   
   131  127  137 1   
   132  127  138 1   
   133  128  129 ar  
   134  128  130 ar  
   135  129  131 ar  
   136  129  139 1   
   137  130  132 ar  
   138  130  140 1   
   139  131  133 ar  
   140  131  141 1   
   141  132  133 ar  
   142  132  142 1   
   143  133  134 1   
   144  134  143 1   
   145  144  145 1   
   146  144  153 1   
   147  145  146 1   
   148  145  148 1   
   149  145  154 1   
   150  146  147 2   
   151  146  159 1   
   152  148  149 1   
   153  148  155 1   
   154  148  156 1   
   155  149  150 1   
   156  149  157 1   
   157  149  158 1   
   158  150  151 1   
   159  150  152 1   
   160  159  160 1   
   161  159  168 1   
   162  160  161 1   
   163  160  163 1   
   164  160  169 1   
   165  161  162 2   
   166  161  174 1   
   167  163  164 1   
   168  163  170 1   
   169  163  171 1   
   170  164  165 1   
   171  164  172 1   
   172  164  173 1   
   173  165  166 1   
   174  165  167 1   
   175  174  175 1   
   176  174  179 1   
   177  175  176 1   
   178  175  177 1   
   179  175  178 1   
   180  181  182 1   
   181  181  183 1   
@<TRIPOS>SUBSTRUCTURE
     1 MOL         1 TEMP              0 ****  ****    0 ROOT
