@<TRIPOS>MOLECULE
MOL
  175   173     1     0     0
SMALL
resp


@<TRIPOS>ATOM
      1 C1          0.1790    3.8420    5.3250 c3        1 MOL     -0.365630
      2 C2         -0.4060    3.6610    3.9400 c         1 MOL      0.771955
      3 O1          0.2460    3.8370    2.9070 o         1 MOL     -0.580528
      4 H1          0.1660    2.8870    5.8520 hc        1 MOL      0.086192
      5 H2          1.2070    4.1960    5.2430 hc        1 MOL      0.086192
      6 H3         -0.4140    4.5700    5.8790 hc        1 MOL      0.086192
      7 N1         -1.7090    3.2970    3.8900 n         1 MOL     -0.700071
      8 C3         -2.5150    3.2350    2.6930 c3        1 MOL      0.448886
      9 C4         -2.6410    4.5580    1.9210 c         1 MOL      0.403576
     10 O2         -3.0480    5.5710    2.5190 o         1 MOL     -0.585813
     11 C5         -3.8670    2.5860    3.0140 c3        1 MOL     -0.377495
     12 C6         -4.5600    2.1060    1.7360 c         1 MOL      0.763721
     13 O3         -3.8390    1.7900    0.7460 o         1 MOL     -0.672968
     14 O4         -5.7510    1.8790    1.8200 o         1 MOL     -0.672968
     15 H4         -2.0920    3.0650    4.8020 hn        1 MOL      0.303552
     16 H5         -2.0290    2.5840    1.9780 h1        1 MOL     -0.172451
     17 H6         -4.5040    3.2450    3.6030 hc        1 MOL      0.073655
     18 H7         -3.7680    1.6880    3.6290 hc        1 MOL      0.073655
     19 N2         -2.3380    4.4930    0.6160 n         1 MOL     -0.117012
     20 C7         -2.5840    5.5780   -0.3330 c3        1 MOL      0.118525
     21 C8         -3.4850    5.1140   -1.5290 c         1 MOL      0.453006
     22 O5         -3.4800    5.7520   -2.6070 o         1 MOL     -0.554380
     23 C9         -1.1510    6.1520   -0.7170 c3        1 MOL     -0.207456
     24 H8         -1.8290    3.7110    0.2320 hn        1 MOL      0.204731
     25 H9         -3.1150    6.4200    0.1120 h1        1 MOL      0.034700
     26 H10        -1.1000    7.2190   -0.9180 hc        1 MOL      0.053500
     27 H11        -0.4160    5.9530    0.0620 hc        1 MOL      0.053500
     28 H12        -0.7970    5.7190   -1.6550 hc        1 MOL      0.053500
     29 N3         -4.2280    3.9810   -1.4830 n         1 MOL     -0.322670
     30 C10        -4.8800    3.3270   -2.5630 c3        1 MOL      0.108325
     31 C11        -6.1390    2.5420   -2.2530 c         1 MOL      0.428460
     32 O6         -7.0440    2.4300   -3.1090 o         1 MOL     -0.563352
     33 C12        -3.8570    2.5460   -3.3560 c3        1 MOL     -0.259791
     34 C13        -3.1820    1.5080   -2.5270 c         1 MOL      0.879451
     35 O7         -3.8230    0.6280   -2.0710 o         1 MOL     -0.781675
     36 O8         -1.9390    1.5080   -2.4020 o         1 MOL     -0.781675
     37 H13        -4.2850    3.5190   -0.5820 hn        1 MOL      0.084687
     38 H14        -5.2140    4.1390   -3.2010 h1        1 MOL      0.061946
     39 H15        -3.1530    3.2620   -3.7880 hc        1 MOL      0.066917
     40 H16        -4.3240    2.0000   -4.1720 hc        1 MOL      0.066917
     41 N4         -6.3300    1.9640   -1.0530 n         1 MOL     -0.253111
     42 C14        -7.4430    1.0550   -0.8040 c3        1 MOL     -0.160035
     43 C15        -7.3410   -0.3390   -1.3530 c         1 MOL      0.501532
     44 O9         -8.3760   -0.9680   -1.4700 o         1 MOL     -0.626762
     45 H17        -5.5530    1.8710   -0.4160 hn        1 MOL      0.218392
     46 H18        -8.3690    1.6080   -0.9430 h1        1 MOL      0.103549
     47 H19        -7.3850    0.8680    0.2690 h1        1 MOL      0.103549
     48 N5         -6.1730   -0.8920   -1.7150 n         1 MOL     -0.057605
     49 C16        -6.0330   -2.2830   -2.3580 c3        1 MOL     -0.288424
     50 C17        -5.9390   -3.3720   -1.2550 c         1 MOL      0.538659
     51 O10        -5.7550   -4.5110   -1.6300 o         1 MOL     -0.506877
     52 C18        -4.7940   -2.3700   -3.2240 c3        1 MOL     -0.005822
     53 C19        -3.4450   -2.2180   -2.5210 c         1 MOL      0.558978
     54 N6         -2.4910   -2.1610   -3.3880 n         1 MOL     -0.578445
     55 O11        -3.2650   -2.1610   -1.2810 o         1 MOL     -0.537109
     56 H20        -5.3500   -0.3000   -1.6500 hn        1 MOL      0.132613
     57 H21        -6.8380   -2.4000   -3.0870 h1        1 MOL      0.164219
     58 H22        -4.7920   -1.6440   -4.0390 hc        1 MOL      0.031085
     59 H23        -4.8130   -3.3480   -3.7070 hc        1 MOL      0.031085
     60 H24        -2.7070   -2.1570   -4.3750 hn        1 MOL      0.310228
     61 H25        -1.5710   -1.9460   -3.0510 hn        1 MOL      0.310228
     62 N7         -6.1270   -3.0280    0.0030 n         1 MOL     -0.333600
     63 C20        -6.1060   -3.9530    1.1480 c3        1 MOL     -0.069134
     64 C21        -4.7400   -4.6250    1.4790 c         1 MOL      0.426359
     65 O12        -4.7360   -5.7670    1.9440 o         1 MOL     -0.568311
     66 H26        -6.2350   -2.0540    0.2090 hn        1 MOL      0.291545
     67 H27        -6.8490   -4.7470    1.0910 h1        1 MOL      0.069323
     68 H28        -6.3260   -3.2980    1.9920 h1        1 MOL      0.069323
     69 N8         -3.5980   -4.1000    1.0750 n         1 MOL      0.032324
     70 C22        -2.2350   -4.5720    1.3690 c3        1 MOL     -0.171713
     71 C23        -1.2650   -3.4620    1.5310 c         1 MOL      0.333535
     72 O13        -1.5410   -2.3920    0.9130 o         1 MOL     -0.285711
     73 C24        -1.6900   -5.3580    0.1960 c3        1 MOL      0.599410
     74 C25        -2.4680   -6.6910    0.0270 c3        1 MOL     -0.368315
     75 O14        -1.7070   -4.6800   -1.0170 oh        1 MOL     -0.607580
     76 H29        -3.6000   -3.1990    0.6140 hn        1 MOL     -0.033759
     77 H30        -2.3070   -5.1900    2.2680 h1        1 MOL      0.067872
     78 H31        -0.6910   -5.6380    0.5180 h1        1 MOL     -0.080806
     79 H32        -1.8060   -3.7530   -0.7870 ho        1 MOL      0.318114
     80 H33        -1.7550   -7.3980   -0.3940 hc        1 MOL      0.078848
     81 H34        -2.7440   -7.0720    1.0170 hc        1 MOL      0.078848
     82 H35        -3.4110   -6.6430   -0.5260 hc        1 MOL      0.078848
     83 N9         -0.0990   -3.7100    2.1550 n         1 MOL     -0.503527
     84 C26         1.0500   -2.7150    2.1890 c3        1 MOL      0.070835
     85 C27         1.8410   -2.9060    0.9120 c         1 MOL      0.654904
     86 O15         2.4970   -3.8980    0.7340 o         1 MOL     -0.609330
     87 C28         1.9010   -2.7610    3.4350 c3        1 MOL      0.064186
     88 C29         0.9850   -2.7990    4.6890 c3        1 MOL      0.217529
     89 C30         2.8270   -1.5360    3.4250 c3        1 MOL     -0.300213
     90 C31         1.8090   -2.7550    5.9390 c3        1 MOL     -0.257601
     91 H36         0.0360   -4.6680    2.4490 hn        1 MOL      0.302206
     92 H37         0.6040   -1.7250    2.1090 h1        1 MOL      0.074126
     93 H38         2.4900   -3.6680    3.3630 hc        1 MOL     -0.006978
     94 H39         0.3300   -3.6600    4.7700 hc        1 MOL     -0.039602
     95 H40         0.3680   -1.9110    4.6730 hc        1 MOL     -0.039602
     96 H41         3.2370   -1.2570    2.4630 hc        1 MOL      0.078038
     97 H42         2.3440   -0.5920    3.6920 hc        1 MOL      0.078038
     98 H43         3.6610   -1.6620    4.1180 hc        1 MOL      0.078038
     99 H44         2.3240   -1.8170    6.1380 hc        1 MOL      0.047267
    100 H45         1.1920   -3.1380    6.7600 hc        1 MOL      0.047267
    101 H46         2.6680   -3.4280    5.8850 hc        1 MOL      0.047267
    102 N10         1.9280   -1.8760    0.0670 n         1 MOL     -0.158147
    103 C32         2.6930   -1.8470   -1.1500 c3        1 MOL      0.068371
    104 C33         4.1390   -1.5200   -0.8980 c         1 MOL      0.425125
    105 O16         4.4440   -0.8920    0.1490 o         1 MOL     -0.309831
    106 C34         2.0900   -1.0270   -2.1770 c3        1 MOL     -0.262249
    107 C35         0.6570   -1.2900   -2.5090 c         1 MOL      0.751573
    108 O17        -0.2690   -1.0180   -1.7320 o         1 MOL     -0.689764
    109 O18         0.4140   -1.6880   -3.6980 o         1 MOL     -0.689764
    110 H47         1.4640   -1.0300    0.3690 hn        1 MOL     -0.298586
    111 H48         2.7990   -2.8130   -1.6300 h1        1 MOL      0.060657
    112 H49         2.7360   -1.0450   -3.0570 hc        1 MOL      0.099057
    113 H50         2.1050   -0.0080   -1.8120 hc        1 MOL      0.099057
    114 N11         5.0960   -1.7980   -1.7960 n         1 MOL     -0.601040
    115 C36         6.5430   -1.3810   -1.5200 c3        1 MOL      0.295634
    116 C37         6.6120    0.1150   -1.2080 c         1 MOL      0.425238
    117 O19         7.1440    0.4820   -0.1680 o         1 MOL     -0.487272
    118 C38         7.5670   -1.9290   -2.5170 c3        1 MOL     -0.212207
    119 C39         9.0450   -1.5000   -2.1800 ca        1 MOL      0.057178
    120 C40         9.6590   -2.1650   -1.1290 ca        1 MOL     -0.160954
    121 C41         9.7280   -0.4450   -2.8240 ca        1 MOL     -0.160954
    122 C42        10.9730   -1.7770   -0.7180 ca        1 MOL     -0.107816
    123 C43        11.0280   -0.0730   -2.4020 ca        1 MOL     -0.107816
    124 C44        11.6880   -0.6820   -1.3330 ca        1 MOL     -0.102736
    125 H51         4.8300   -2.1970   -2.6800 hn        1 MOL      0.332765
    126 H52         6.7160   -1.8760   -0.5640 h1        1 MOL      0.060811
    127 H53         7.3420   -1.4000   -3.4450 hc        1 MOL      0.074462
    128 H54         7.3610   -2.9820   -2.7060 hc        1 MOL      0.074462
    129 H55         9.1580   -3.0540   -0.7800 ha        1 MOL      0.126144
    130 H56         9.2130    0.0970   -3.6130 ha        1 MOL      0.126144
    131 H57        11.3790   -2.2730    0.1470 ha        1 MOL      0.105324
    132 H58        11.4290    0.6600   -3.0870 ha        1 MOL      0.105324
    133 H59        12.6760   -0.3900   -1.0200 ha        1 MOL      0.113298
    134 N12         6.0010    1.0560   -1.9670 n         1 MOL     -0.163961
    135 C45         5.8670    2.5060   -1.6510 c3        1 MOL     -0.042837
    136 C46         5.3470    2.8530   -0.3160 c         1 MOL      0.299595
    137 O20         5.5240    3.9750    0.1550 o         1 MOL     -0.555642
    138 C47         4.8080    3.0510   -2.6130 c3        1 MOL     -0.042393
    139 C48         5.2260    2.2730   -3.8730 c3        1 MOL     -0.036467
    140 C49         5.3530    0.8780   -3.2870 c3        1 MOL      0.024895
    141 H60         6.7820    3.0800   -1.7770 h1        1 MOL      0.098759
    142 H61         3.7740    2.7910   -2.4020 hc        1 MOL      0.067551
    143 H62         4.8960    4.1130   -2.8530 hc        1 MOL      0.067551
    144 H63         4.3940    2.3450   -4.5690 hc        1 MOL      0.026691
    145 H64         6.1560    2.6290   -4.3380 hc        1 MOL      0.026691
    146 H65         4.3620    0.4360   -3.2500 h1        1 MOL      0.004488
    147 H66         5.9240    0.2970   -4.0140 h1        1 MOL      0.004488
    148 N13         4.6670    1.9790    0.3060 n         1 MOL     -0.029598
    149 C50         4.0360    2.1360    1.6300 c3        1 MOL      0.005008
    150 C51         4.8070    1.4250    2.7910 c         1 MOL      0.378249
    151 O21         4.6600    1.8670    3.9020 o         1 MOL     -0.537187
    152 C52         2.6170    1.5540    1.5760 c3        1 MOL      0.110899
    153 C53         1.7110    2.2210    0.5550 c3        1 MOL     -0.399447
    154 C54         0.3090    1.6220    0.6810 c         1 MOL      0.796238
    155 O22        -0.6680    2.2700    0.2190 o         1 MOL     -0.652989
    156 O23         0.1720    0.4400    1.0900 o         1 MOL     -0.652989
    157 H67         4.4790    1.1510   -0.2480 hn        1 MOL      0.089219
    158 H68         3.9130    3.1780    1.9250 h1        1 MOL      0.090207
    159 H69         2.2070    1.5140    2.5800 hc        1 MOL      0.028496
    160 H70         2.7300    0.5040    1.2750 hc        1 MOL      0.028496
    161 H71         2.1980    1.9300   -0.3680 hc        1 MOL      0.124102
    162 H72         1.8220    3.3010    0.6640 hc        1 MOL      0.124102
    163 N14         5.5260    0.2970    2.4790 n         1 MOL     -0.021782
    164 C55         6.5360   -0.2730    3.3460 c3        1 MOL     -0.149088
    165 H73         6.1460   -1.1780    3.8130 h1        1 MOL      0.058051
    166 H74         7.4220   -0.5210    2.7610 h1        1 MOL      0.058051
    167 H75         6.8010    0.4480    4.1200 h1        1 MOL      0.058051
    168 H76         5.5970    0.0400    1.5000 hn        1 MOL      0.032455
    169 Ca1        -2.0870    0.0850   -0.2300 Ca        1 MOL      1.746236
    170 O24        -1.8240   -0.0160    2.6690 oh        1 MOL     -0.878527
    171 H77        -1.8430    0.2440    3.5930 ho        1 MOL      0.418343
    172 H78        -0.9140    0.1100    2.4040 ho        1 MOL      0.418343
    173 O25        -4.0890   -0.9320    1.6380 oh        1 MOL     -0.878527
    174 H79        -4.9250   -0.6380    1.9770 ho        1 MOL      0.418343
    175 H80        -3.4900   -0.8660    2.3800 ho        1 MOL      0.418343
@<TRIPOS>BOND
     1    1    2 1   
     2    1    4 1   
     3    1    5 1   
     4    1    6 1   
     5    2    3 2   
     6    2    7 1   
     7    7    8 1   
     8    7   15 1   
     9    8    9 1   
    10    8   11 1   
    11    8   16 1   
    12    9   10 2   
    13    9   19 1   
    14   11   12 1   
    15   11   17 1   
    16   11   18 1   
    17   12   13 1   
    18   12   14 1   
    19   19   20 1   
    20   19   24 1   
    21   20   21 1   
    22   20   23 1   
    23   20   25 1   
    24   21   22 2   
    25   21   29 1   
    26   23   26 1   
    27   23   27 1   
    28   23   28 1   
    29   29   30 1   
    30   29   37 1   
    31   30   31 1   
    32   30   33 1   
    33   30   38 1   
    34   31   32 2   
    35   31   41 1   
    36   33   34 1   
    37   33   39 1   
    38   33   40 1   
    39   34   35 1   
    40   34   36 1   
    41   41   42 1   
    42   41   45 1   
    43   42   43 1   
    44   42   46 1   
    45   42   47 1   
    46   43   44 2   
    47   43   48 1   
    48   48   49 1   
    49   48   56 1   
    50   49   50 1   
    51   49   52 1   
    52   49   57 1   
    53   50   51 2   
    54   50   62 1   
    55   52   53 1   
    56   52   58 1   
    57   52   59 1   
    58   53   54 1   
    59   53   55 2   
    60   54   60 1   
    61   54   61 1   
    62   62   63 1   
    63   62   66 1   
    64   63   64 1   
    65   63   67 1   
    66   63   68 1   
    67   64   65 2   
    68   64   69 1   
    69   69   70 1   
    70   69   76 1   
    71   70   71 1   
    72   70   73 1   
    73   70   77 1   
    74   71   72 2   
    75   71   83 1   
    76   73   74 1   
    77   73   75 1   
    78   73   78 1   
    79   74   80 1   
    80   74   81 1   
    81   74   82 1   
    82   75   79 1   
    83   83   84 1   
    84   83   91 1   
    85   84   85 1   
    86   84   87 1   
    87   84   92 1   
    88   85   86 2   
    89   85  102 1   
    90   87   88 1   
    91   87   89 1   
    92   87   93 1   
    93   88   90 1   
    94   88   94 1   
    95   88   95 1   
    96   89   96 1   
    97   89   97 1   
    98   89   98 1   
    99   90   99 1   
   100   90  100 1   
   101   90  101 1   
   102  102  103 1   
   103  102  110 1   
   104  103  104 1   
   105  103  106 1   
   106  103  111 1   
   107  104  105 2   
   108  104  114 1   
   109  106  107 1   
   110  106  112 1   
   111  106  113 1   
   112  107  108 1   
   113  107  109 1   
   114  114  115 1   
   115  114  125 1   
   116  115  116 1   
   117  115  118 1   
   118  115  126 1   
   119  116  117 2   
   120  116  134 1   
   121  118  119 1   
   122  118  127 1   
   123  118  128 1   
   124  119  120 ar  
   125  119  121 ar  
   126  120  122 ar  
   127  120  129 1   
   128  121  123 ar  
   129  121  130 1   
   130  122  124 ar  
   131  122  131 1   
   132  123  124 ar  
   133  123  132 1   
   134  124  133 1   
   135  134  135 1   
   136  134  140 1   
   137  135  136 1   
   138  135  138 1   
   139  135  141 1   
   140  136  137 2   
   141  136  148 1   
   142  138  139 1   
   143  138  142 1   
   144  138  143 1   
   145  139  140 1   
   146  139  144 1   
   147  139  145 1   
   148  140  146 1   
   149  140  147 1   
   150  148  149 1   
   151  148  157 1   
   152  149  150 1   
   153  149  152 1   
   154  149  158 1   
   155  150  151 2   
   156  150  163 1   
   157  152  153 1   
   158  152  159 1   
   159  152  160 1   
   160  153  154 1   
   161  153  161 1   
   162  153  162 1   
   163  154  155 1   
   164  154  156 1   
   165  163  164 1   
   166  163  168 1   
   167  164  165 1   
   168  164  166 1   
   169  164  167 1   
   170  170  171 1   
   171  170  172 1   
   172  173  174 1   
   173  173  175 1   
@<TRIPOS>SUBSTRUCTURE
     1 MOL         1 TEMP              0 ****  ****    0 ROOT
