@<TRIPOS>MOLECULE
MOL
  189   185     1     0     0
SMALL
resp


@<TRIPOS>ATOM
      1 C1         -0.0350   -4.5440    5.6110 c3        1 MOL     -0.306959
      2 C2          0.6330   -3.9880    4.3670 c         1 MOL      0.737366
      3 O1          0.7850   -2.7600    4.1810 o         1 MOL     -0.650606
      4 H1         -0.1560   -5.6220    5.5080 hc        1 MOL      0.078199
      5 H2          0.5840   -4.3300    6.4820 hc        1 MOL      0.078199
      6 H3         -1.0130   -4.0790    5.7370 hc        1 MOL      0.078199
      7 N1          1.0000   -4.8050    3.4010 n         1 MOL     -0.641582
      8 C3          1.6460   -4.3670    2.1580 c3        1 MOL      0.373281
      9 C4          1.0820   -5.2040    0.9820 c         1 MOL      0.462021
     10 O2          0.5530   -6.3050    1.2080 o         1 MOL     -0.608611
     11 C5          3.1790   -4.4280    2.3870 c3        1 MOL     -0.517783
     12 C6          3.9650   -3.7630    1.2710 c         1 MOL      0.807018
     13 O3          5.1830   -3.8790    1.2400 o         1 MOL     -0.688656
     14 O4          3.3810   -2.9730    0.5370 o         1 MOL     -0.688656
     15 H4          0.9670   -5.8090    3.4800 hn        1 MOL      0.321440
     16 H5          1.4060   -3.3150    2.0010 h1        1 MOL      0.041564
     17 H6          3.4350   -5.4870    2.4760 hc        1 MOL      0.114342
     18 H7          3.3650   -3.8660    3.3010 hc        1 MOL      0.114342
     19 N2          1.2630   -4.6540   -0.1690 n         1 MOL     -0.108418
     20 C7          1.0260   -5.2820   -1.4870 c3        1 MOL     -0.029181
     21 C8          2.2560   -5.0570   -2.3960 c         1 MOL      0.404826
     22 O5          2.7550   -5.9600   -3.1010 o         1 MOL     -0.568552
     23 C9         -0.2580   -4.7180   -2.1110 c3        1 MOL      0.102420
     24 C10        -1.4600   -5.0490   -1.2090 c3        1 MOL      0.010534
     25 C11        -0.3800   -5.2070   -3.5650 c3        1 MOL     -0.295279
     26 C12        -2.7870   -4.6320   -1.8630 c3        1 MOL     -0.210745
     27 H8          1.5080   -3.6730   -0.2340 hn        1 MOL     -0.045815
     28 H9          0.8630   -6.3510   -1.3610 h1        1 MOL      0.061990
     29 H10        -0.2020   -3.6270   -2.1720 hc        1 MOL      0.074296
     30 H11        -1.3120   -4.5570   -0.2440 hc        1 MOL      0.025557
     31 H12        -1.5960   -6.1080   -0.9640 hc        1 MOL      0.025557
     32 H13        -1.3190   -4.7570   -3.8740 hc        1 MOL      0.064040
     33 H14         0.4580   -4.8250   -4.1570 hc        1 MOL      0.064040
     34 H15        -0.5510   -6.2750   -3.6190 hc        1 MOL      0.064040
     35 H16        -3.5360   -4.4780   -1.0840 hc        1 MOL      0.053838
     36 H17        -2.6890   -3.6970   -2.4160 hc        1 MOL      0.053838
     37 H18        -3.2140   -5.4090   -2.5030 hc        1 MOL      0.053838
     38 N3          2.7660   -3.8440   -2.4230 n         1 MOL     -0.185028
     39 C13         3.5810   -3.2910   -3.5260 c3        1 MOL     -0.001157
     40 C14         5.0830   -3.0270   -3.2220 c         1 MOL      0.360022
     41 O6          5.9210   -2.9210   -4.1140 o         1 MOL     -0.539730
     42 C15         2.8930   -1.9860   -4.1150 c3        1 MOL     -0.324678
     43 C16         2.3200   -0.9880   -3.1290 c         1 MOL      0.743246
     44 O7          2.7100   -0.9740   -1.9510 o         1 MOL     -0.686773
     45 O8          1.3020   -0.3050   -3.4880 o         1 MOL     -0.686773
     46 H19         2.4900   -3.0890   -1.8020 hn        1 MOL      0.344021
     47 H20         3.5170   -4.0050   -4.3510 h1        1 MOL      0.107775
     48 H21         1.9900   -2.3460   -4.6280 hc        1 MOL      0.086590
     49 H22         3.5180   -1.4590   -4.8260 hc        1 MOL      0.086590
     50 N4          5.5390   -3.0000   -1.9370 n         1 MOL     -0.044744
     51 C17         6.9280   -2.7360   -1.5010 c3        1 MOL     -0.205976
     52 C18         7.3710   -1.2880   -1.5570 c         1 MOL      0.531046
     53 O9          8.5550   -1.0090   -1.5950 o         1 MOL     -0.599003
     54 H23         4.7920   -3.0560   -1.2540 hn        1 MOL      0.002050
     55 H24         7.6060   -3.2930   -2.1540 h1        1 MOL      0.104209
     56 H25         7.0650   -3.0240   -0.4620 h1        1 MOL      0.104209
     57 N5          6.4550   -0.3220   -1.5870 n         1 MOL     -0.224862
     58 C19         6.6930    1.0720   -2.1000 c3        1 MOL      0.017056
     59 C20         7.2590    2.0080   -0.9320 c         1 MOL      0.409581
     60 O10         7.9830    2.9610   -1.2090 o         1 MOL     -0.535315
     61 C21         5.4770    1.7670   -2.8300 c3        1 MOL     -0.398345
     62 C22         4.2850    1.9260   -1.9020 c         1 MOL      0.729140
     63 O11         4.2270    1.3220   -0.8510 o         1 MOL     -0.700712
     64 O12         3.2900    2.5930   -2.3960 o         1 MOL     -0.700712
     65 H26         5.5000   -0.6560   -1.5370 hn        1 MOL      0.249574
     66 H27         7.4160    1.1600   -2.8980 h1        1 MOL      0.091886
     67 H28         5.1660    1.0500   -3.5920 hc        1 MOL      0.131829
     68 H29         5.7430    2.7350   -3.2510 hc        1 MOL      0.131829
     69 N6          7.0480    1.7030    0.3390 n         1 MOL     -0.227485
     70 C23         7.2990    2.6100    1.4380 c3        1 MOL     -0.151648
     71 C24         6.2100    3.6180    1.7280 c         1 MOL      0.571781
     72 O13         6.5250    4.5430    2.5000 o         1 MOL     -0.588906
     73 H30         6.4920    0.8800    0.5280 hn        1 MOL      0.156844
     74 H31         8.2730    3.0820    1.3290 h1        1 MOL      0.091414
     75 H32         7.3560    2.0250    2.3640 h1        1 MOL      0.091414
     76 N7          5.0240    3.4720    1.0910 n         1 MOL     -0.388127
     77 C25         3.8240    4.2780    1.4520 c3        1 MOL      0.034101
     78 C26         2.7360    3.2550    1.8690 c         1 MOL      0.581626
     79 O14         2.9190    2.0490    1.7500 o         1 MOL     -0.618815
     80 C27         3.3050    5.2130    0.3630 c3        1 MOL     -0.004640
     81 C28         4.2760    6.2720   -0.2060 c3        1 MOL     -0.175687
     82 C29         3.4530    7.3580   -0.8240 c         1 MOL      0.650085
     83 N8          2.9290    7.2170   -2.0200 n         1 MOL     -0.811297
     84 O15         3.2740    8.3550   -0.1430 o         1 MOL     -0.598709
     85 H33         4.7430    2.6420    0.5850 hn        1 MOL      0.323431
     86 H34         3.9710    4.8110    2.3890 h1        1 MOL      0.044264
     87 H35         2.5470    5.8730    0.7910 hc        1 MOL      0.044038
     88 H36         2.8810    4.7220   -0.5160 hc        1 MOL      0.044038
     89 H37         4.9100    5.8920   -0.9960 hc        1 MOL      0.063144
     90 H38         4.9130    6.7740    0.5290 hc        1 MOL      0.063144
     91 H39         3.1770    6.4230   -2.5900 hn        1 MOL      0.375123
     92 H40         2.1480    7.8170   -2.2280 hn        1 MOL      0.375123
     93 N9          1.5820    3.8610    2.2210 n         1 MOL     -0.485656
     94 C30         0.2490    3.1380    2.4470 c3        1 MOL      0.260102
     95 C31        -0.7860    3.4800    1.4670 c         1 MOL      0.263036
     96 O16        -0.8770    4.6440    1.0360 o         1 MOL     -0.583852
     97 C32        -0.1340    3.3320    3.9150 c3        1 MOL      0.247742
     98 C33        -1.3800    2.5120    4.3150 c3        1 MOL     -0.225346
     99 C34         1.0180    2.9170    4.8530 c3        1 MOL     -0.225346
    100 H41         1.5810    4.8410    2.4530 hn        1 MOL      0.262392
    101 H42         0.4110    2.0630    2.4400 h1        1 MOL      0.011814
    102 H43        -0.4260    4.3620    4.1240 hc        1 MOL     -0.051358
    103 H44        -2.2670    2.7460    3.7150 hc        1 MOL      0.040376
    104 H45        -1.0650    1.4850    4.1590 hc        1 MOL      0.040376
    105 H46        -1.6250    2.6230    5.3750 hc        1 MOL      0.040376
    106 H47         1.5210    3.8310    5.1880 hc        1 MOL      0.040376
    107 H48         0.5360    2.5190    5.7520 hc        1 MOL      0.040376
    108 H49         1.8490    2.3400    4.4510 hc        1 MOL      0.040376
    109 N10        -1.5560    2.5090    1.0180 n         1 MOL      0.033564
    110 C35        -2.7180    2.7240    0.1370 c3        1 MOL      0.270660
    111 C36        -4.0130    2.3180    0.8140 c         1 MOL     -0.114376
    112 O17        -4.0040    1.6150    1.8380 o         1 MOL     -0.077244
    113 C37        -2.5290    1.9930   -1.2050 c3        1 MOL     -0.338829
    114 C38        -3.6800    2.1360   -2.2400 c         1 MOL      0.692800
    115 N11        -3.8610    3.2930   -2.8510 n         1 MOL     -0.823871
    116 O18        -4.4650    1.2710   -2.4170 o         1 MOL     -0.513483
    117 H50        -1.3260    1.5780    1.3460 hn        1 MOL      0.025521
    118 H51        -2.8710    3.7370   -0.2500 h1        1 MOL      0.012880
    119 H52        -2.2780    0.9390   -1.0390 hc        1 MOL      0.108516
    120 H53        -1.6510    2.4570   -1.6420 hc        1 MOL      0.108516
    121 H54        -3.2560    4.0840   -2.6590 hn        1 MOL      0.379248
    122 H55        -4.6070    3.2620   -3.5300 hn        1 MOL      0.379248
    123 N12        -5.1470    2.7230    0.2330 n         1 MOL     -0.067617
    124 C39        -6.5340    2.2460    0.6980 c3        1 MOL     -0.016069
    125 C40        -6.8270    0.6870    0.7830 c         1 MOL      0.441565
    126 O19        -7.4440    0.2870    1.7940 o         1 MOL     -0.553635
    127 C41        -7.6610    3.0250   -0.0690 c3        1 MOL     -0.193122
    128 C42        -7.4750    3.1040   -1.5680 ca        1 MOL      0.028903
    129 C43        -6.7490    4.1090   -2.2300 ca        1 MOL     -0.085965
    130 C44        -7.9240    2.0490   -2.3810 ca        1 MOL     -0.085965
    131 C45        -6.5370    4.1630   -3.6020 ca        1 MOL     -0.367260
    132 C46        -7.6850    2.0620   -3.7890 ca        1 MOL     -0.367260
    133 C47        -7.0870    3.1790   -4.4270 ca        1 MOL      0.442900
    134 O20        -6.9000    3.2960   -5.7320 oh        1 MOL     -0.561088
    135 H56        -5.1490    3.2920   -0.5950 hn        1 MOL      0.134141
    136 H57        -6.4560    2.5280    1.7520 h1        1 MOL      0.076688
    137 H58        -7.6450    4.0550    0.2870 hc        1 MOL      0.086371
    138 H59        -8.6700    2.6420    0.0950 hc        1 MOL      0.086371
    139 H60        -6.3530    4.9030   -1.6040 ha        1 MOL      0.105445
    140 H61        -8.3760    1.1940   -1.9000 ha        1 MOL      0.105445
    141 H62        -5.9020    4.9460   -3.9880 ha        1 MOL      0.158997
    142 H63        -8.0730    1.3320   -4.4780 ha        1 MOL      0.158997
    143 H64        -7.4960    2.7280   -6.2270 ho        1 MOL      0.415940
    144 N13        -6.2740   -0.1580   -0.0620 n         1 MOL     -0.078029
    145 C48        -6.3800   -1.6080    0.1170 c3        1 MOL     -0.391234
    146 C49        -5.5790   -2.1710    1.2940 c         1 MOL      0.706198
    147 O21        -5.8030   -3.2160    1.7810 o         1 MOL     -0.562861
    148 C50        -5.9280   -2.2780   -1.2150 c3        1 MOL      0.150301
    149 C51        -6.8780   -2.0630   -2.4450 c3        1 MOL     -0.332387
    150 C52        -8.3070   -2.5090   -2.0310 c         1 MOL      0.721851
    151 O22        -9.2670   -1.7030   -2.0840 o         1 MOL     -0.724342
    152 O23        -8.5590   -3.6920   -1.6650 o         1 MOL     -0.724342
    153 H65        -6.0090    0.2900   -0.9350 hn        1 MOL      0.253321
    154 H66        -7.4300   -1.8660    0.2310 h1        1 MOL      0.211596
    155 H67        -5.7770   -3.3370   -1.0250 hc        1 MOL     -0.009328
    156 H68        -4.9760   -1.8590   -1.5330 hc        1 MOL     -0.009328
    157 H69        -6.6820   -2.6980   -3.3070 hc        1 MOL      0.064941
    158 H70        -6.8850   -1.0230   -2.7440 hc        1 MOL      0.064941
    159 N14        -4.6500   -1.3610    1.7640 n         1 MOL     -0.352636
    160 C53        -3.6020   -1.7390    2.8150 c3        1 MOL      0.092223
    161 C54        -3.9620   -1.1260    4.2070 c         1 MOL      0.422971
    162 O24        -4.0470   -1.9030    5.1780 o         1 MOL     -0.560641
    163 C55        -2.2370   -1.1600    2.4830 c3        1 MOL      0.044079
    164 C56        -1.4860   -2.0070    1.3830 c3        1 MOL      0.102644
    165 C57        -0.2280   -1.2450    0.8450 c         1 MOL      0.828951
    166 O25         0.4900   -1.7350   -0.0310 o         1 MOL     -0.775910
    167 O26         0.0170   -0.0950    1.3490 o         1 MOL     -0.775910
    168 H71        -4.6410   -0.4160    1.4310 hn        1 MOL      0.037206
    169 H72        -3.5140   -2.8100    2.9510 h1        1 MOL      0.045867
    170 H73        -1.6610   -1.2420    3.4060 hc        1 MOL      0.009684
    171 H74        -2.3960   -0.1450    2.1500 hc        1 MOL      0.009684
    172 H75        -2.1440   -2.2860    0.5590 hc        1 MOL     -0.049209
    173 H76        -1.1980   -2.9420    1.8660 hc        1 MOL     -0.049209
    174 N15        -4.4170    0.1270    4.2810 n         1 MOL     -0.040475
    175 C58        -4.7040    0.7950    5.5090 c3        1 MOL     -0.259635
    176 H77        -5.1240    1.7790    5.2970 h1        1 MOL      0.089343
    177 H78        -5.4220    0.2100    6.0820 h1        1 MOL      0.089343
    178 H79        -3.7860    0.9090    6.0830 h1        1 MOL      0.089343
    179 H80        -4.2590    0.7000    3.4580 hn        1 MOL      0.006212
    180 Ca1         2.6430   -0.2840    0.4540 Ca        1 MOL      1.741495
    181 O27         2.3990   -1.1130    2.8470 oh        1 MOL     -0.877485
    182 H81         1.8000   -1.7050    3.2900 ho        1 MOL      0.416329
    183 H82         2.6740   -0.5050    3.5290 ho        1 MOL      0.416329
    184 O28         5.1680   -0.7220    1.2280 oh        1 MOL     -0.877485
    185 H83         6.0580   -0.5190    1.5260 ho        1 MOL      0.416329
    186 H84         5.0610   -1.6530    1.4110 ho        1 MOL      0.416329
    187 O29         1.1910    1.5710   -1.3710 oh        1 MOL     -0.877485
    188 H85         1.9430    2.1390   -1.5530 ho        1 MOL      0.416329
    189 H86         1.1730    0.9490   -2.1020 ho        1 MOL      0.416329
@<TRIPOS>BOND
     1    1    2 1   
     2    1    4 1   
     3    1    5 1   
     4    1    6 1   
     5    2    3 2   
     6    2    7 1   
     7    7    8 1   
     8    7   15 1   
     9    8    9 1   
    10    8   11 1   
    11    8   16 1   
    12    9   10 2   
    13    9   19 1   
    14   11   12 1   
    15   11   17 1   
    16   11   18 1   
    17   12   13 1   
    18   12   14 1   
    19   19   20 1   
    20   19   27 1   
    21   20   21 1   
    22   20   23 1   
    23   20   28 1   
    24   21   22 2   
    25   21   38 1   
    26   23   24 1   
    27   23   25 1   
    28   23   29 1   
    29   24   26 1   
    30   24   30 1   
    31   24   31 1   
    32   25   32 1   
    33   25   33 1   
    34   25   34 1   
    35   26   35 1   
    36   26   36 1   
    37   26   37 1   
    38   38   39 1   
    39   38   46 1   
    40   39   40 1   
    41   39   42 1   
    42   39   47 1   
    43   40   41 2   
    44   40   50 1   
    45   42   43 1   
    46   42   48 1   
    47   42   49 1   
    48   43   44 1   
    49   43   45 1   
    50   50   51 1   
    51   50   54 1   
    52   51   52 1   
    53   51   55 1   
    54   51   56 1   
    55   52   53 2   
    56   52   57 1   
    57   57   58 1   
    58   57   65 1   
    59   58   59 1   
    60   58   61 1   
    61   58   66 1   
    62   59   60 2   
    63   59   69 1   
    64   61   62 1   
    65   61   67 1   
    66   61   68 1   
    67   62   63 1   
    68   62   64 1   
    69   69   70 1   
    70   69   73 1   
    71   70   71 1   
    72   70   74 1   
    73   70   75 1   
    74   71   72 2   
    75   71   76 1   
    76   76   77 1   
    77   76   85 1   
    78   77   78 1   
    79   77   80 1   
    80   77   86 1   
    81   78   79 2   
    82   78   93 1   
    83   80   81 1   
    84   80   87 1   
    85   80   88 1   
    86   81   82 1   
    87   81   89 1   
    88   81   90 1   
    89   82   83 1   
    90   82   84 2   
    91   83   91 1   
    92   83   92 1   
    93   93   94 1   
    94   93  100 1   
    95   94   95 1   
    96   94   97 1   
    97   94  101 1   
    98   95   96 2   
    99   95  109 1   
   100   97   98 1   
   101   97   99 1   
   102   97  102 1   
   103   98  103 1   
   104   98  104 1   
   105   98  105 1   
   106   99  106 1   
   107   99  107 1   
   108   99  108 1   
   109  109  110 1   
   110  109  117 1   
   111  110  111 1   
   112  110  113 1   
   113  110  118 1   
   114  111  112 2   
   115  111  123 1   
   116  113  114 1   
   117  113  119 1   
   118  113  120 1   
   119  114  115 1   
   120  114  116 2   
   121  115  121 1   
   122  115  122 1   
   123  123  124 1   
   124  123  135 1   
   125  124  125 1   
   126  124  127 1   
   127  124  136 1   
   128  125  126 2   
   129  125  144 1   
   130  127  128 1   
   131  127  137 1   
   132  127  138 1   
   133  128  129 ar  
   134  128  130 ar  
   135  129  131 ar  
   136  129  139 1   
   137  130  132 ar  
   138  130  140 1   
   139  131  133 ar  
   140  131  141 1   
   141  132  133 ar  
   142  132  142 1   
   143  133  134 1   
   144  134  143 1   
   145  144  145 1   
   146  144  153 1   
   147  145  146 1   
   148  145  148 1   
   149  145  154 1   
   150  146  147 2   
   151  146  159 1   
   152  148  149 1   
   153  148  155 1   
   154  148  156 1   
   155  149  150 1   
   156  149  157 1   
   157  149  158 1   
   158  150  151 1   
   159  150  152 1   
   160  159  160 1   
   161  159  168 1   
   162  160  161 1   
   163  160  163 1   
   164  160  169 1   
   165  161  162 2   
   166  161  174 1   
   167  163  164 1   
   168  163  170 1   
   169  163  171 1   
   170  164  165 1   
   171  164  172 1   
   172  164  173 1   
   173  165  166 1   
   174  165  167 1   
   175  174  175 1   
   176  174  179 1   
   177  175  176 1   
   178  175  177 1   
   179  175  178 1   
   180  181  182 1   
   181  181  183 1   
   182  184  185 1   
   183  184  186 1   
   184  187  188 1   
   185  187  189 1   
@<TRIPOS>SUBSTRUCTURE
     1 MOL         1 TEMP              0 ****  ****    0 ROOT
