@<TRIPOS>MOLECULE
MOL
  172   171     1     0     0
SMALL
resp


@<TRIPOS>ATOM
      1 C1          0.2180   -2.7670    5.8420 c3        1 MOL     -0.356919
      2 C2          0.5570   -2.6500    4.3870 c         1 MOL      0.800977
      3 O1         -0.0390   -3.3510    3.6210 o         1 MOL     -0.577513
      4 H1          0.0850   -1.7710    6.2650 hc        1 MOL      0.079122
      5 H2         -0.7050   -3.3360    5.9560 hc        1 MOL      0.079122
      6 H3          1.0280   -3.2780    6.3640 hc        1 MOL      0.079122
      7 N1          1.5890   -1.9210    4.0300 n         1 MOL     -0.730306
      8 C3          2.1250   -1.9340    2.7040 c3        1 MOL      0.260597
      9 C4          2.5890   -3.3510    2.3010 c         1 MOL      0.736864
     10 O2          3.3250   -3.9720    3.0270 o         1 MOL     -0.631029
     11 C5          3.2330   -0.8740    2.5640 c3        1 MOL     -0.303061
     12 C6          4.0070   -0.8500    1.2390 c         1 MOL      0.652516
     13 O3          3.5480   -1.2160    0.1190 o         1 MOL     -0.609271
     14 O4          5.1320   -0.3430    1.3810 o         1 MOL     -0.609271
     15 H4          2.0260   -1.3230    4.7100 hn        1 MOL      0.332254
     16 H5          1.3380   -1.5830    2.0480 h1        1 MOL      0.019108
     17 H6          3.9560   -1.0720    3.3610 hc        1 MOL      0.063334
     18 H7          2.8230    0.1150    2.7550 hc        1 MOL      0.063334
     19 N2          2.2580   -3.7700    1.0980 n         1 MOL     -0.769099
     20 C7          2.5960   -4.9460    0.3870 c3        1 MOL      0.691572
     21 C8          3.7590   -4.8850   -0.6530 c         1 MOL      0.162602
     22 O5          4.1700   -5.9460   -1.0950 o         1 MOL     -0.553781
     23 C9          1.4030   -5.6280   -0.1660 c3        1 MOL     -0.275843
     24 H8          1.5950   -3.1900    0.5870 hn        1 MOL      0.333408
     25 H9          3.0280   -5.6240    1.1260 h1        1 MOL     -0.079948
     26 H10         0.6280   -5.5440    0.5960 hc        1 MOL      0.051866
     27 H11         0.9960   -5.1820   -1.0690 hc        1 MOL      0.051866
     28 H12         1.6660   -6.6760   -0.3220 hc        1 MOL      0.051866
     29 N3          4.2190   -3.7250   -1.0270 n         1 MOL     -0.008020
     30 C10         5.3200   -3.5130   -1.9850 c3        1 MOL     -0.014889
     31 C11         6.6230   -3.0130   -1.2200 c         1 MOL      0.411495
     32 O6          7.6280   -3.0370   -1.8420 o         1 MOL     -0.539991
     33 C12         4.9560   -2.5290   -3.1270 c3        1 MOL      0.192072
     34 C13         3.4850   -2.4950   -3.4140 c         1 MOL      0.578792
     35 O7          3.0380   -3.4370   -4.0540 o         1 MOL     -0.687131
     36 O8          2.8030   -1.5540   -3.0010 o         1 MOL     -0.687131
     37 H13         3.7070   -2.9470   -0.6300 hn        1 MOL      0.077659
     38 H14         5.5410   -4.4620   -2.4760 h1        1 MOL      0.089066
     39 H15         5.5200   -2.8740   -3.9910 hc        1 MOL     -0.068867
     40 H16         5.2750   -1.5090   -2.9120 hc        1 MOL     -0.068867
     41 N4          6.5290   -2.6260    0.0360 n         1 MOL     -0.283870
     42 C14         7.6450   -1.9610    0.6980 c3        1 MOL     -0.202119
     43 C15         7.9000   -0.5420    0.1720 c         1 MOL      0.523777
     44 O9          8.8000    0.0920    0.6970 o         1 MOL     -0.567707
     45 H17         5.6100   -2.5840    0.4440 hn        1 MOL      0.194436
     46 H18         8.5240   -2.5870    0.5860 h1        1 MOL      0.127768
     47 H19         7.4160   -1.8960    1.7600 h1        1 MOL      0.127768
     48 N5          7.0630   -0.1020   -0.8390 n         1 MOL     -0.243709
     49 C16         7.2420    1.2330   -1.4610 c3        1 MOL      0.008535
     50 C17         7.0030    2.3620   -0.4540 c         1 MOL      0.371777
     51 O10         7.4260    3.5090   -0.7060 o         1 MOL     -0.555755
     52 C18         6.2850    1.3780   -2.6620 c3        1 MOL     -0.227767
     53 C19         4.9040    2.0140   -2.3650 c         1 MOL      0.578808
     54 N6          4.4980    3.0200   -3.1360 n         1 MOL     -0.679270
     55 O11         4.0560    1.4700   -1.6450 o         1 MOL     -0.558735
     56 H20         6.2010   -0.6070   -0.9510 hn        1 MOL      0.134718
     57 H21         8.2700    1.3000   -1.7960 h1        1 MOL      0.109389
     58 H22         6.1910    0.4500   -3.2230 hc        1 MOL      0.082503
     59 H23         6.8910    2.0520   -3.2600 hc        1 MOL      0.082503
     60 H24         5.0520    3.3280   -3.9230 hn        1 MOL      0.339923
     61 H25         3.5910    3.3870   -2.9000 hn        1 MOL      0.339923
     62 N7          6.3970    2.0760    0.6940 n         1 MOL      0.050773
     63 C20         6.1770    3.1450    1.6240 c3        1 MOL     -0.311661
     64 C21         4.8940    4.0450    1.4930 c         1 MOL      0.610204
     65 O12         4.8230    5.1200    2.0960 o         1 MOL     -0.581280
     66 H26         6.0620    1.1400    0.8500 hn        1 MOL      0.151679
     67 H27         7.0870    3.7450    1.5690 h1        1 MOL      0.115649
     68 H28         6.0630    2.7120    2.6250 h1        1 MOL      0.115649
     69 N8          3.7620    3.6530    0.8410 n         1 MOL     -0.259118
     70 C22         2.4460    4.3480    0.8170 c3        1 MOL     -0.112138
     71 C23         1.2620    3.3670    0.7210 c         1 MOL      0.531537
     72 O13         1.5360    2.2230    0.4000 o         1 MOL     -0.496132
     73 C24         2.3070    5.3750   -0.3420 c3        1 MOL      0.377185
     74 C25         3.1690    6.6340   -0.0940 c3        1 MOL     -0.457326
     75 O14         2.7240    4.9700   -1.6020 oh        1 MOL     -0.590417
     76 H29         3.8050    2.7690    0.3530 hn        1 MOL      0.161458
     77 H30         2.3890    4.9770    1.7130 h1        1 MOL      0.098439
     78 H31         1.2700    5.6840   -0.4520 h1        1 MOL     -0.008502
     79 H32         2.6660    5.7110   -2.1970 ho        1 MOL      0.388515
     80 H33         4.2410    6.4660   -0.0750 hc        1 MOL      0.109393
     81 H34         2.8530    7.5110   -0.6680 hc        1 MOL      0.109393
     82 H35         2.9060    6.8200    0.9500 hc        1 MOL      0.109393
     83 N9          0.0740    3.7490    1.1530 n         1 MOL     -0.312544
     84 C26        -1.1410    2.8970    1.3910 c3        1 MOL     -0.108949
     85 C27        -1.8220    2.8940    0.0190 c         1 MOL      0.562261
     86 O15        -2.2170    3.9640   -0.3850 o         1 MOL     -0.595337
     87 C28        -1.9390    3.5270    2.5850 c3        1 MOL      0.009250
     88 C29        -1.2680    3.0930    3.8980 c3        1 MOL      0.188826
     89 C30        -3.3580    2.8370    2.6390 c3        1 MOL     -0.076680
     90 C31        -1.8780    3.7380    5.1400 c3        1 MOL     -0.506026
     91 H36         0.0180    4.7200    1.4250 hn        1 MOL      0.222974
     92 H37        -0.8750    1.8710    1.6110 h1        1 MOL      0.062953
     93 H38        -1.9130    4.6150    2.5910 hc        1 MOL      0.039043
     94 H39        -0.2230    3.3810    3.7960 hc        1 MOL     -0.018666
     95 H40        -1.3490    2.0180    4.0450 hc        1 MOL     -0.018666
     96 H41        -3.8580    3.0740    1.6950 hc        1 MOL      0.015634
     97 H42        -3.2110    1.7600    2.7140 hc        1 MOL      0.015634
     98 H43        -3.9730    3.2370    3.4490 hc        1 MOL      0.015634
     99 H44        -2.8660    3.3050    5.3270 hc        1 MOL      0.124567
    100 H45        -1.2460    3.3160    5.9240 hc        1 MOL      0.124567
    101 H46        -1.8790    4.8130    4.9620 hc        1 MOL      0.124567
    102 N10        -2.0680    1.7380   -0.5270 n         1 MOL     -0.354595
    103 C32        -3.0520    1.5310   -1.5590 c3        1 MOL      0.275738
    104 C33        -4.4760    1.1830   -1.0510 c         1 MOL      0.370108
    105 O16        -4.5970    0.5980    0.0460 o         1 MOL     -0.220144
    106 C34        -2.5900    0.5080   -2.5680 c3        1 MOL     -0.423860
    107 C35        -1.1340    0.6350   -3.0470 c         1 MOL      0.819440
    108 O17        -0.8400    1.4090   -4.0020 o         1 MOL     -0.724510
    109 O18        -0.2160   -0.0030   -2.4850 o         1 MOL     -0.724510
    110 H47        -1.7350    0.8780   -0.1340 hn        1 MOL      0.260665
    111 H48        -3.1200    2.4800   -2.1060 h1        1 MOL      0.017132
    112 H49        -3.1110    0.6130   -3.5200 hc        1 MOL      0.095553
    113 H50        -2.6270   -0.5080   -2.1590 hc        1 MOL      0.095553
    114 N11        -5.5140    1.3620   -1.8670 n         1 MOL     -0.865776
    115 C36        -6.8270    1.0440   -1.3570 c3        1 MOL      0.774596
    116 C37        -7.0380   -0.3070   -0.7330 c         1 MOL      0.203035
    117 O19        -7.4910   -0.2990    0.4030 o         1 MOL     -0.478149
    118 C38        -7.8110    1.3600   -2.4630 c3        1 MOL     -0.399542
    119 C39        -9.2260    1.2400   -1.9260 ca        1 MOL      0.176132
    120 C40        -9.5580    1.9720   -0.7710 ca        1 MOL     -0.220106
    121 C41       -10.1810    0.3920   -2.6030 ca        1 MOL     -0.220106
    122 C42       -10.8480    1.8300   -0.2880 ca        1 MOL     -0.079030
    123 C43       -11.4770    0.2030   -2.0720 ca        1 MOL     -0.079030
    124 C44       -11.7890    0.9560   -0.9370 ca        1 MOL     -0.150948
    125 H51        -5.3100    1.9700   -2.6400 hn        1 MOL      0.395637
    126 H52        -6.9620    1.7190   -0.5090 h1        1 MOL     -0.022604
    127 H53        -7.6870    0.6120   -3.2570 hc        1 MOL      0.095942
    128 H54        -7.6700    2.3670   -2.8600 hc        1 MOL      0.095942
    129 H55        -8.8370    2.6320   -0.3050 ha        1 MOL      0.127623
    130 H56        -9.8750   -0.1840   -3.4610 ha        1 MOL      0.127623
    131 H57       -11.1450    2.2090    0.6750 ha        1 MOL      0.113518
    132 H58       -12.1590   -0.4390   -2.6130 ha        1 MOL      0.113518
    133 H59       -12.7810    0.8160   -0.5420 ha        1 MOL      0.100870
    134 N12        -6.6320   -1.4480   -1.3180 n         1 MOL     -0.084037
    135 C45        -6.7170   -2.7250   -0.6330 c3        1 MOL      0.044722
    136 C46        -5.7930   -2.9200    0.5540 c         1 MOL      0.251671
    137 O20        -6.0500   -3.6850    1.4850 o         1 MOL     -0.485572
    138 C47        -6.3620   -3.7240   -1.6810 c3        1 MOL      0.050688
    139 C48        -6.7650   -3.0480   -3.0090 c3        1 MOL     -0.318613
    140 C49        -6.1890   -1.6360   -2.6680 c3        1 MOL     -0.002769
    141 H60        -7.7360   -2.9230   -0.3050 h1        1 MOL      0.082773
    142 H61        -5.3160   -4.0220   -1.6940 hc        1 MOL      0.035818
    143 H62        -6.9850   -4.6130   -1.5270 hc        1 MOL      0.035818
    144 H63        -6.1440   -3.5230   -3.7600 hc        1 MOL      0.103783
    145 H64        -7.8420   -3.0030   -3.1660 hc        1 MOL      0.103783
    146 H65        -5.1080   -1.7360   -2.6070 h1        1 MOL      0.065850
    147 H66        -6.4580   -0.8660   -3.3910 h1        1 MOL      0.065850
    148 N13        -4.7300   -2.0780    0.6560 n         1 MOL     -0.074215
    149 C50        -3.8830   -1.9840    1.8410 c3        1 MOL     -0.204835
    150 C51        -4.6310   -1.2680    3.0020 c         1 MOL      0.507179
    151 O21        -4.4940   -1.6690    4.1650 o         1 MOL     -0.571081
    152 C52        -2.5270   -1.2830    1.6130 c3        1 MOL     -0.001070
    153 C53        -1.6730   -1.9850    0.6140 c3        1 MOL     -0.171265
    154 C54        -0.3400   -1.3520    0.2490 c         1 MOL      0.815523
    155 O22        -0.1640   -0.1420    0.4340 o         1 MOL     -0.766027
    156 O23         0.5400   -2.0210   -0.2890 o         1 MOL     -0.766027
    157 H67        -4.5240   -1.3640   -0.0220 hn        1 MOL      0.101664
    158 H68        -3.6150   -2.9770    2.1910 h1        1 MOL      0.137118
    159 H69        -2.0190   -1.3920    2.5680 hc        1 MOL      0.037240
    160 H70        -2.7330   -0.2290    1.4020 hc        1 MOL      0.037240
    161 H71        -2.2230   -1.9990   -0.3310 hc        1 MOL      0.049565
    162 H72        -1.4690   -2.9700    1.0300 hc        1 MOL      0.049565
    163 N14        -5.3300   -0.1890    2.6420 n         1 MOL     -0.004114
    164 C55        -6.2950    0.5500    3.5290 c3        1 MOL     -0.197599
    165 H73        -6.2040    1.6210    3.3500 h1        1 MOL      0.072518
    166 H74        -7.3120    0.2290    3.3050 h1        1 MOL      0.072518
    167 H75        -6.0660    0.3360    4.5730 h1        1 MOL      0.072518
    168 H76        -5.2990    0.1860    1.7020 hn        1 MOL      0.001425
    169 Ca1         1.8610    0.1040   -1.1540 Ca        1 MOL      1.659548
    170 O24         1.5720    2.3010   -2.6600 oh        1 MOL     -0.873598
    171 H77         0.8910    1.8870   -3.1830 ho        1 MOL      0.399214
    172 H78         1.7160    3.1480   -3.0740 ho        1 MOL      0.399214
@<TRIPOS>BOND
     1    1    2 1   
     2    1    4 1   
     3    1    5 1   
     4    1    6 1   
     5    2    3 2   
     6    2    7 1   
     7    7    8 1   
     8    7   15 1   
     9    8    9 1   
    10    8   11 1   
    11    8   16 1   
    12    9   10 2   
    13    9   19 1   
    14   11   12 1   
    15   11   17 1   
    16   11   18 1   
    17   12   13 1   
    18   12   14 1   
    19   19   20 1   
    20   19   24 1   
    21   20   21 1   
    22   20   23 1   
    23   20   25 1   
    24   21   22 2   
    25   21   29 1   
    26   23   26 1   
    27   23   27 1   
    28   23   28 1   
    29   29   30 1   
    30   29   37 1   
    31   30   31 1   
    32   30   33 1   
    33   30   38 1   
    34   31   32 2   
    35   31   41 1   
    36   33   34 1   
    37   33   39 1   
    38   33   40 1   
    39   34   35 1   
    40   34   36 1   
    41   41   42 1   
    42   41   45 1   
    43   42   43 1   
    44   42   46 1   
    45   42   47 1   
    46   43   44 2   
    47   43   48 1   
    48   48   49 1   
    49   48   56 1   
    50   49   50 1   
    51   49   52 1   
    52   49   57 1   
    53   50   51 2   
    54   50   62 1   
    55   52   53 1   
    56   52   58 1   
    57   52   59 1   
    58   53   54 1   
    59   53   55 2   
    60   54   60 1   
    61   54   61 1   
    62   62   63 1   
    63   62   66 1   
    64   63   64 1   
    65   63   67 1   
    66   63   68 1   
    67   64   65 2   
    68   64   69 1   
    69   69   70 1   
    70   69   76 1   
    71   70   71 1   
    72   70   73 1   
    73   70   77 1   
    74   71   72 2   
    75   71   83 1   
    76   73   74 1   
    77   73   75 1   
    78   73   78 1   
    79   74   80 1   
    80   74   81 1   
    81   74   82 1   
    82   75   79 1   
    83   83   84 1   
    84   83   91 1   
    85   84   85 1   
    86   84   87 1   
    87   84   92 1   
    88   85   86 2   
    89   85  102 1   
    90   87   88 1   
    91   87   89 1   
    92   87   93 1   
    93   88   90 1   
    94   88   94 1   
    95   88   95 1   
    96   89   96 1   
    97   89   97 1   
    98   89   98 1   
    99   90   99 1   
   100   90  100 1   
   101   90  101 1   
   102  102  103 1   
   103  102  110 1   
   104  103  104 1   
   105  103  106 1   
   106  103  111 1   
   107  104  105 2   
   108  104  114 1   
   109  106  107 1   
   110  106  112 1   
   111  106  113 1   
   112  107  108 1   
   113  107  109 1   
   114  114  115 1   
   115  114  125 1   
   116  115  116 1   
   117  115  118 1   
   118  115  126 1   
   119  116  117 2   
   120  116  134 1   
   121  118  119 1   
   122  118  127 1   
   123  118  128 1   
   124  119  120 ar  
   125  119  121 ar  
   126  120  122 ar  
   127  120  129 1   
   128  121  123 ar  
   129  121  130 1   
   130  122  124 ar  
   131  122  131 1   
   132  123  124 ar  
   133  123  132 1   
   134  124  133 1   
   135  134  135 1   
   136  134  140 1   
   137  135  136 1   
   138  135  138 1   
   139  135  141 1   
   140  136  137 2   
   141  136  148 1   
   142  138  139 1   
   143  138  142 1   
   144  138  143 1   
   145  139  140 1   
   146  139  144 1   
   147  139  145 1   
   148  140  146 1   
   149  140  147 1   
   150  148  149 1   
   151  148  157 1   
   152  149  150 1   
   153  149  152 1   
   154  149  158 1   
   155  150  151 2   
   156  150  163 1   
   157  152  153 1   
   158  152  159 1   
   159  152  160 1   
   160  153  154 1   
   161  153  161 1   
   162  153  162 1   
   163  154  155 1   
   164  154  156 1   
   165  163  164 1   
   166  163  168 1   
   167  164  165 1   
   168  164  166 1   
   169  164  167 1   
   170  170  171 1   
   171  170  172 1   
@<TRIPOS>SUBSTRUCTURE
     1 MOL         1 TEMP              0 ****  ****    0 ROOT
