@<TRIPOS>MOLECULE
MOL
  189   185     1     0     0
SMALL
resp


@<TRIPOS>ATOM
      1 C1         -1.2320   -1.5010    6.7630 c3        1 MOL     -0.351179
      2 C2         -1.2210   -1.0720    5.2690 c         1 MOL      0.818218
      3 O1         -0.1480   -0.9100    4.7310 o         1 MOL     -0.616907
      4 H1         -2.1090   -2.1180    6.9580 hc        1 MOL      0.083372
      5 H2         -0.3300   -2.0730    6.9840 hc        1 MOL      0.083372
      6 H3         -1.2640   -0.6150    7.3960 hc        1 MOL      0.083372
      7 N1         -2.4100   -0.8680    4.6540 n         1 MOL     -0.707525
      8 C3         -2.5160   -0.1830    3.3450 c3        1 MOL     -0.011191
      9 C4         -2.7570    1.3280    3.4230 c         1 MOL      0.630133
     10 O2         -3.6490    1.7920    4.1610 o         1 MOL     -0.544566
     11 C5         -3.7570   -0.9100    2.6800 c3        1 MOL     -0.024346
     12 C6         -4.2550   -0.0950    1.4630 c         1 MOL      0.491914
     13 O3         -3.4140    0.4360    0.6760 o         1 MOL     -0.557934
     14 O4         -5.4700    0.0430    1.3010 o         1 MOL     -0.557934
     15 H4         -3.2810   -0.9530    5.1480 hn        1 MOL      0.359645
     16 H5         -1.7450   -0.5210    2.6430 h1        1 MOL      0.140241
     17 H6         -4.5780   -1.0840    3.3680 hc        1 MOL      0.011103
     18 H7         -3.4360   -1.9030    2.3780 hc        1 MOL      0.011103
     19 N2         -1.8440    2.0880    2.7670 n         1 MOL     -0.387472
     20 C7         -1.7620    3.5760    2.7870 c3        1 MOL     -0.004370
     21 C8         -2.8450    4.3110    1.9830 c         1 MOL      0.458974
     22 O5         -3.3460    5.3700    2.3960 o         1 MOL     -0.594388
     23 C9         -0.4400    3.8860    2.1130 c3        1 MOL     -0.115055
     24 C10         0.0520    5.3170    1.8090 c3        1 MOL      0.081626
     25 C11         1.2050    5.3370    0.9090 c3        1 MOL      0.052294
     26 C12         1.7800    6.7520    0.5640 c3        1 MOL     -0.224069
     27 N3          0.8820    7.6510   -0.2010 n4        1 MOL     -0.283630
     28 H8         -1.0960    1.6510    2.2340 hn        1 MOL      0.194479
     29 H9         -1.7950    3.9700    3.8030 h1        1 MOL      0.082134
     30 H10        -0.4250    3.3820    1.1440 hc        1 MOL      0.073434
     31 H11         0.3930    3.3550    2.5710 hc        1 MOL      0.073434
     32 H12         0.2760    5.7880    2.7650 hc        1 MOL     -0.007817
     33 H13        -0.7820    5.8710    1.3720 hc        1 MOL     -0.007817
     34 H14         0.9650    4.8230   -0.0230 hc        1 MOL      0.006300
     35 H15         1.9460    4.6790    1.3600 hc        1 MOL      0.006300
     36 H16         2.6490    6.5670   -0.0700 hx        1 MOL      0.138200
     37 H17         2.0670    7.2190    1.5070 hx        1 MOL      0.138200
     38 H18         1.1400    8.6280   -0.1540 hn        1 MOL      0.317050
     39 H19         0.8590    7.3390   -1.1590 hn        1 MOL      0.317050
     40 H20        -0.0730    7.7020    0.1320 hn        1 MOL      0.317050
     41 N4         -3.0160    3.8670    0.7860 n         1 MOL     -0.188304
     42 C13        -3.7350    4.5440   -0.3470 c3        1 MOL      0.147288
     43 C14        -5.0400    3.8890   -0.7410 c         1 MOL      0.582745
     44 O6         -5.5680    4.0780   -1.8060 o         1 MOL     -0.547112
     45 C15        -2.7250    4.9510   -1.4720 c3        1 MOL     -0.192231
     46 C16        -1.7350    3.8900   -1.8090 c         1 MOL      0.908937
     47 O7         -1.9380    2.7640   -1.3970 o         1 MOL     -0.771535
     48 O8         -0.7850    4.1990   -2.6130 o         1 MOL     -0.771535
     49 H21        -2.5160    2.9990    0.6540 hn        1 MOL      0.001712
     50 H22        -4.1960    5.4550    0.0350 h1        1 MOL      0.042952
     51 H23        -2.2620    5.8950   -1.1890 hc        1 MOL      0.018196
     52 H24        -3.3240    5.2250   -2.3390 hc        1 MOL      0.018196
     53 N5         -5.6740    3.0600    0.1100 n         1 MOL     -0.531054
     54 C17        -7.1430    2.7030    0.0850 c3        1 MOL     -0.089360
     55 C18        -7.6280    1.6720   -0.9710 c         1 MOL      0.465532
     56 O9         -8.7480    1.6170   -1.4430 o         1 MOL     -0.584325
     57 H25        -5.1610    2.8420    0.9580 hn        1 MOL      0.345386
     58 H26        -7.6830    3.6200   -0.1330 h1        1 MOL      0.100698
     59 H27        -7.5350    2.4540    1.0690 h1        1 MOL      0.100698
     60 N6         -6.7250    0.8650   -1.4620 n         1 MOL      0.024435
     61 C19        -6.9640   -0.2700   -2.3810 c3        1 MOL     -0.220575
     62 C20        -7.2200   -1.6270   -1.7950 c         1 MOL      0.444935
     63 O10        -7.5320   -2.6060   -2.4790 o         1 MOL     -0.547392
     64 C21        -5.8460   -0.3020   -3.3970 c3        1 MOL     -0.146277
     65 C22        -4.4740   -0.0630   -2.7620 c         1 MOL      0.585711
     66 O11        -3.7240    0.9150   -3.1650 o         1 MOL     -0.657400
     67 O12        -4.0110   -0.8260   -1.8790 o         1 MOL     -0.657400
     68 H28        -5.7960    1.0080   -1.1090 hn        1 MOL      0.169715
     69 H29        -7.7980    0.0020   -3.0240 h1        1 MOL      0.164958
     70 H30        -6.0140    0.4350   -4.1830 hc        1 MOL      0.065838
     71 H31        -5.7750   -1.2990   -3.8410 hc        1 MOL      0.065838
     72 N7         -6.7990   -1.6940   -0.5270 n         1 MOL     -0.055495
     73 C23        -6.6930   -2.8300    0.3900 c3        1 MOL     -0.225013
     74 C24        -5.5460   -3.7840    0.0800 c         1 MOL      0.563935
     75 O13        -5.7100   -4.9740    0.3800 o         1 MOL     -0.591131
     76 H32        -6.2830   -0.8400   -0.3320 hn        1 MOL     -0.028693
     77 H33        -7.6750   -3.3120    0.3460 h1        1 MOL      0.114800
     78 H34        -6.4470   -2.3620    1.3460 h1        1 MOL      0.114800
     79 N8         -4.5080   -3.4090   -0.6580 n         1 MOL     -0.166673
     80 C25        -3.2420   -4.1890   -0.8550 c3        1 MOL     -0.172032
     81 C26        -1.9340   -3.5170   -0.4040 c         1 MOL      0.638439
     82 O14        -1.9460   -2.2510   -0.2160 o         1 MOL     -0.619779
     83 C27        -3.0600   -4.4780   -2.3560 c3        1 MOL      0.328126
     84 C28        -4.1070   -5.4140   -2.8330 c3        1 MOL     -0.415751
     85 O15        -3.2380   -3.2880   -3.1730 oh        1 MOL     -0.603556
     86 H35        -4.5140   -2.4100   -0.8270 hn        1 MOL      0.242933
     87 H36        -3.3230   -5.1710   -0.3880 h1        1 MOL      0.083495
     88 H37        -2.0900   -4.9230   -2.5700 h1        1 MOL      0.044445
     89 H38        -4.1530   -3.3080   -3.4580 ho        1 MOL      0.400177
     90 H39        -3.9820   -5.6230   -3.8950 hc        1 MOL      0.110787
     91 H40        -3.8520   -6.3960   -2.4320 hc        1 MOL      0.110787
     92 H41        -5.0980   -5.0820   -2.5150 hc        1 MOL      0.110787
     93 N9         -0.8590   -4.2870   -0.1590 n         1 MOL     -0.523352
     94 C29         0.4340   -3.7160    0.3920 c3        1 MOL      0.154271
     95 C30         1.5030   -3.9040   -0.7240 c         1 MOL      0.409539
     96 O16         1.4510   -4.9280   -1.4010 o         1 MOL     -0.554514
     97 C31         0.9880   -4.4570    1.5740 c3        1 MOL     -0.015084
     98 C32        -0.0630   -4.2670    2.7510 c3        1 MOL      0.154833
     99 C33         2.3480   -3.8060    2.1230 c3        1 MOL     -0.369924
    100 C34         0.2350   -5.0280    4.0380 c3        1 MOL     -0.423044
    101 H42        -0.9280   -5.2910   -0.2600 hn        1 MOL      0.309326
    102 H43         0.4410   -2.6440    0.6300 h1        1 MOL      0.051903
    103 H44         1.1790   -5.5030    1.3320 hc        1 MOL      0.040787
    104 H45        -1.0420   -4.6100    2.4150 hc        1 MOL      0.004966
    105 H46        -0.1280   -3.1960    2.9680 hc        1 MOL      0.004966
    106 H47         3.1600   -3.8000    1.3900 hc        1 MOL      0.090650
    107 H48         2.2110   -2.7610    2.3960 hc        1 MOL      0.090650
    108 H49         2.6710   -4.3400    3.0180 hc        1 MOL      0.090650
    109 H50        -0.5560   -5.1270    4.7730 hc        1 MOL      0.105029
    110 H51         0.6420   -6.0330    3.9200 hc        1 MOL      0.105029
    111 H52         0.9590   -4.4450    4.5910 hc        1 MOL      0.105029
    112 N10         2.3330   -2.8850   -0.8890 n         1 MOL      0.057933
    113 C35         3.4580   -2.8150   -1.8370 c3        1 MOL      0.031097
    114 C36         4.8110   -2.7860   -1.0840 c         1 MOL      0.280037
    115 O17         4.9170   -2.8390    0.1440 o         1 MOL     -0.317960
    116 C37         3.3700   -1.5970   -2.6510 c3        1 MOL      0.023868
    117 C38         2.1250   -1.4860   -3.5690 c3        1 MOL     -0.196121
    118 O18         3.3280   -0.4840   -1.8250 oh        1 MOL     -0.410323
    119 H53         2.1060   -1.9860   -0.4670 hn        1 MOL     -0.045620
    120 H54         3.4660   -3.7240   -2.4230 h1        1 MOL      0.074493
    121 H55         4.2870   -1.5660   -3.2360 h1        1 MOL      0.063524
    122 H56         2.4330   -0.4890   -1.4880 ho        1 MOL      0.185454
    123 H57         1.2030   -1.2900   -3.0120 hc        1 MOL      0.075824
    124 H58         2.2550   -0.7230   -4.3220 hc        1 MOL      0.075824
    125 H59         2.0200   -2.4200   -4.1340 hc        1 MOL      0.075824
    126 N11         6.0540   -2.5810   -1.6740 n         1 MOL     -0.210510
    127 C39         7.3180   -2.4550   -1.0250 c3        1 MOL     -0.277970
    128 C40         7.4330   -1.0580   -0.3780 c         1 MOL      0.532170
    129 O19         8.0010   -1.0200    0.7370 o         1 MOL     -0.521774
    130 C41         8.4600   -2.6440   -2.0480 c3        1 MOL      0.282864
    131 C42         8.5620   -4.1280   -2.6320 c3        1 MOL     -0.469070
    132 O20         8.4710   -1.8190   -3.2200 oh        1 MOL     -0.669256
    133 H60         5.8960   -2.4320   -2.6630 hn        1 MOL      0.233241
    134 H61         7.4470   -3.2060   -0.2440 h1        1 MOL      0.192626
    135 H62         9.4030   -2.3320   -1.5860 h1        1 MOL      0.069657
    136 H63         9.0910   -2.2070   -3.8370 ho        1 MOL      0.434888
    137 H64         7.9300   -4.2330   -3.5150 hc        1 MOL      0.132822
    138 H65         9.6360   -4.2010   -2.8390 hc        1 MOL      0.132822
    139 H66         8.3530   -4.9280   -1.9160 hc        1 MOL      0.132822
    140 N12         6.7390   -0.0430   -0.9610 n         1 MOL     -0.339101
    141 C43         6.7180    1.2080   -0.2920 c3        1 MOL      0.002778
    142 C44         5.7070    1.2500    0.8540 c         1 MOL      0.482684
    143 O21         5.6470    2.2480    1.5760 o         1 MOL     -0.565576
    144 C45         6.4880    2.3080   -1.3730 c3        1 MOL     -0.154771
    145 C46         7.2790    3.6420   -1.1970 c3        1 MOL      0.137062
    146 C47         7.0900    4.6050   -2.4280 c3        1 MOL     -0.281083
    147 C48         8.0850    5.8200   -2.2590 c3        1 MOL     -0.007962
    148 N13         7.7780    6.7410   -1.2000 n4        1 MOL     -0.268911
    149 H67         6.4410   -0.1810   -1.9110 hn        1 MOL      0.310218
    150 H68         7.6430    1.4840    0.2060 h1        1 MOL      0.094203
    151 H69         5.4090    2.4420   -1.4780 hc        1 MOL      0.065310
    152 H70         6.7450    1.9290   -2.3560 hc        1 MOL      0.065310
    153 H71         8.3310    3.3840   -1.0330 hc        1 MOL      0.004878
    154 H72         6.9300    4.0660   -0.2530 hc        1 MOL      0.004878
    155 H73         6.0700    4.9700   -2.5700 hc        1 MOL      0.120444
    156 H74         7.4310    4.0350   -3.2970 hc        1 MOL      0.120444
    157 H75         8.0760    6.4230   -3.1700 hx        1 MOL      0.103577
    158 H76         9.0780    5.3980   -2.1060 hx        1 MOL      0.103577
    159 H77         6.9260    7.2550   -1.3800 hn        1 MOL      0.277550
    160 H78         7.7560    6.2030   -0.3440 hn        1 MOL      0.277550
    161 H79         8.5130    7.4030   -1.0040 hn        1 MOL      0.277550
    162 N14         5.0010    0.1530    1.1410 n         1 MOL     -0.126021
    163 C49         4.0910   -0.0250    2.2900 c3        1 MOL     -0.127081
    164 C50         4.5950   -1.0770    3.2740 c         1 MOL      0.435426
    165 O22         4.2240   -1.0310    4.4550 o         1 MOL     -0.516364
    166 C51         2.7070   -0.2320    1.7580 c3        1 MOL      0.009321
    167 C52         2.0710    0.9270    1.0430 c3        1 MOL     -0.099759
    168 C53         0.7840    0.4510    0.4070 c         1 MOL      0.567552
    169 O23         0.8520   -0.2910   -0.5960 o         1 MOL     -0.626262
    170 O24        -0.3520    0.7880    0.7870 o         1 MOL     -0.626262
    171 H80         5.1260   -0.6120    0.4970 hn        1 MOL     -0.034277
    172 H81         4.0520    0.8820    2.8920 h1        1 MOL      0.115173
    173 H82         2.0430   -0.3910    2.5970 hc        1 MOL      0.118974
    174 H83         2.7830   -1.1670    1.2050 hc        1 MOL      0.118974
    175 H84         2.7250    1.3890    0.2990 hc        1 MOL      0.041163
    176 H85         1.8440    1.7050    1.7640 hc        1 MOL      0.041163
    177 N15         5.4260   -2.0250    2.8450 n         1 MOL     -0.158243
    178 C54         5.8080   -3.1850    3.6020 c3        1 MOL     -0.246903
    179 H86         4.9380   -3.5770    4.1280 h1        1 MOL      0.101607
    180 H87         6.1990   -3.9470    2.9280 h1        1 MOL      0.101607
    181 H88         6.5760   -2.9100    4.3260 h1        1 MOL      0.101607
    182 H89         5.8080   -1.9880    1.9100 hn        1 MOL      0.207194
    183 Ca1        -1.7560    0.2160   -1.3000 Ca        1 MOL      1.745346
    184 O25         0.1490    1.4340   -2.9500 oh        1 MOL     -0.808689
    185 H90        -0.1900    2.3230   -2.8220 ho        1 MOL      0.383619
    186 H91         1.0690    1.4900   -2.6730 ho        1 MOL      0.383619
    187 O26        -1.2590   -1.3840   -3.3730 oh        1 MOL     -0.808689
    188 H92        -1.9550   -2.0330   -3.4910 ho        1 MOL      0.383619
    189 H93        -0.9270   -1.2380   -4.2610 ho        1 MOL      0.383619
@<TRIPOS>BOND
     1    1    2 1   
     2    1    4 1   
     3    1    5 1   
     4    1    6 1   
     5    2    3 2   
     6    2    7 1   
     7    7    8 1   
     8    7   15 1   
     9    8    9 1   
    10    8   11 1   
    11    8   16 1   
    12    9   10 2   
    13    9   19 1   
    14   11   12 1   
    15   11   17 1   
    16   11   18 1   
    17   12   13 1   
    18   12   14 1   
    19   19   20 1   
    20   19   28 1   
    21   20   21 1   
    22   20   23 1   
    23   20   29 1   
    24   21   22 2   
    25   21   41 1   
    26   23   24 1   
    27   23   30 1   
    28   23   31 1   
    29   24   25 1   
    30   24   32 1   
    31   24   33 1   
    32   25   26 1   
    33   25   34 1   
    34   25   35 1   
    35   26   27 1   
    36   26   36 1   
    37   26   37 1   
    38   27   38 1   
    39   27   39 1   
    40   27   40 1   
    41   41   42 1   
    42   41   49 1   
    43   42   43 1   
    44   42   45 1   
    45   42   50 1   
    46   43   44 2   
    47   43   53 1   
    48   45   46 1   
    49   45   51 1   
    50   45   52 1   
    51   46   47 1   
    52   46   48 1   
    53   53   54 1   
    54   53   57 1   
    55   54   55 1   
    56   54   58 1   
    57   54   59 1   
    58   55   56 2   
    59   55   60 1   
    60   60   61 1   
    61   60   68 1   
    62   61   62 1   
    63   61   64 1   
    64   61   69 1   
    65   62   63 2   
    66   62   72 1   
    67   64   65 1   
    68   64   70 1   
    69   64   71 1   
    70   65   66 1   
    71   65   67 1   
    72   72   73 1   
    73   72   76 1   
    74   73   74 1   
    75   73   77 1   
    76   73   78 1   
    77   74   75 2   
    78   74   79 1   
    79   79   80 1   
    80   79   86 1   
    81   80   81 1   
    82   80   83 1   
    83   80   87 1   
    84   81   82 2   
    85   81   93 1   
    86   83   84 1   
    87   83   85 1   
    88   83   88 1   
    89   84   90 1   
    90   84   91 1   
    91   84   92 1   
    92   85   89 1   
    93   93   94 1   
    94   93  101 1   
    95   94   95 1   
    96   94   97 1   
    97   94  102 1   
    98   95   96 2   
    99   95  112 1   
   100   97   98 1   
   101   97   99 1   
   102   97  103 1   
   103   98  100 1   
   104   98  104 1   
   105   98  105 1   
   106   99  106 1   
   107   99  107 1   
   108   99  108 1   
   109  100  109 1   
   110  100  110 1   
   111  100  111 1   
   112  112  113 1   
   113  112  119 1   
   114  113  114 1   
   115  113  116 1   
   116  113  120 1   
   117  114  115 2   
   118  114  126 1   
   119  116  117 1   
   120  116  118 1   
   121  116  121 1   
   122  117  123 1   
   123  117  124 1   
   124  117  125 1   
   125  118  122 1   
   126  126  127 1   
   127  126  133 1   
   128  127  128 1   
   129  127  130 1   
   130  127  134 1   
   131  128  129 2   
   132  128  140 1   
   133  130  131 1   
   134  130  132 1   
   135  130  135 1   
   136  131  137 1   
   137  131  138 1   
   138  131  139 1   
   139  132  136 1   
   140  140  141 1   
   141  140  149 1   
   142  141  142 1   
   143  141  144 1   
   144  141  150 1   
   145  142  143 2   
   146  142  162 1   
   147  144  145 1   
   148  144  151 1   
   149  144  152 1   
   150  145  146 1   
   151  145  153 1   
   152  145  154 1   
   153  146  147 1   
   154  146  155 1   
   155  146  156 1   
   156  147  148 1   
   157  147  157 1   
   158  147  158 1   
   159  148  159 1   
   160  148  160 1   
   161  148  161 1   
   162  162  163 1   
   163  162  171 1   
   164  163  164 1   
   165  163  166 1   
   166  163  172 1   
   167  164  165 2   
   168  164  177 1   
   169  166  167 1   
   170  166  173 1   
   171  166  174 1   
   172  167  168 1   
   173  167  175 1   
   174  167  176 1   
   175  168  169 1   
   176  168  170 1   
   177  177  178 1   
   178  177  182 1   
   179  178  179 1   
   180  178  180 1   
   181  178  181 1   
   182  184  185 1   
   183  184  186 1   
   184  187  188 1   
   185  187  189 1   
@<TRIPOS>SUBSTRUCTURE
     1 MOL         1 TEMP              0 ****  ****    0 ROOT
