@<TRIPOS>MOLECULE
MOL
  179   176     1     0     0
SMALL
resp


@<TRIPOS>ATOM
      1 C1          1.6080    2.8710    6.7420 c3        1 MOL     -0.309932
      2 C2          1.4020    2.2720    5.3170 c         1 MOL      0.719279
      3 O1          2.3470    1.9350    4.6190 o         1 MOL     -0.575387
      4 H1          0.6670    2.8320    7.2910 hc        1 MOL      0.082123
      5 H2          2.3630    2.2940    7.2740 hc        1 MOL      0.082123
      6 H3          1.9350    3.9080    6.6570 hc        1 MOL      0.082123
      7 N1          0.1690    2.2030    4.7840 n         1 MOL     -0.615636
      8 C3         -0.0580    2.2050    3.3100 c3        1 MOL      0.041104
      9 C4          0.3090    3.5340    2.6440 c         1 MOL      0.704194
     10 O2         -0.0600    4.6050    3.1560 o         1 MOL     -0.563775
     11 C5         -1.4880    1.7620    2.9910 c3        1 MOL     -0.138217
     12 C6         -1.8940    1.4890    1.4500 c         1 MOL      0.724692
     13 O3         -0.9910    1.4670    0.5950 o         1 MOL     -0.727055
     14 O4         -3.1530    1.4120    1.2390 o         1 MOL     -0.727055
     15 H4         -0.6070    2.3580    5.4160 hn        1 MOL      0.326540
     16 H5          0.6550    1.4890    2.8940 h1        1 MOL      0.079789
     17 H6         -2.1110    2.6000    3.2820 hc        1 MOL      0.038724
     18 H7         -1.6640    0.8890    3.6270 hc        1 MOL      0.038724
     19 N2          0.9100    3.4780    1.4570 n         1 MOL     -0.518315
     20 C7          1.2580    4.5850    0.6480 c3        1 MOL     -0.004475
     21 C8          0.1780    5.4350   -0.0360 c         1 MOL      0.363707
     22 O5          0.2900    6.6770   -0.0180 o         1 MOL     -0.552282
     23 C9          2.3630    4.2820   -0.3300 c3        1 MOL      0.314120
     24 C10         3.3720    5.3670   -0.5270 c3        1 MOL     -0.217199
     25 C11         4.2740    4.7760   -1.6270 c3        1 MOL      0.103949
     26 C12         5.4860    5.7080   -2.0970 c3        1 MOL     -0.015774
     27 N3          5.9670    5.1950   -3.4240 n4        1 MOL     -0.336112
     28 H8          1.0180    2.6250    0.9130 hn        1 MOL      0.223668
     29 H9          1.6900    5.2960    1.3500 h1        1 MOL      0.075068
     30 H10         1.8730    4.0820   -1.2830 hc        1 MOL     -0.064051
     31 H11         2.8860    3.3640   -0.0850 hc        1 MOL     -0.064051
     32 H12         3.9430    5.4790    0.3960 hc        1 MOL      0.060211
     33 H13         2.9230    6.2930   -0.8710 hc        1 MOL      0.060211
     34 H14         3.6090    4.4940   -2.4440 hc        1 MOL      0.009349
     35 H15         4.7560    3.9090   -1.1720 hc        1 MOL      0.009349
     36 H16         6.2460    5.7780   -1.3180 hx        1 MOL      0.099299
     37 H17         5.0690    6.7030   -2.2940 hx        1 MOL      0.099299
     38 H18         6.0410    4.1870   -3.4310 hn        1 MOL      0.318877
     39 H19         5.3110    5.3940   -4.1670 hn        1 MOL      0.318877
     40 H20         6.9150    5.5150   -3.5830 hn        1 MOL      0.318877
     41 N4         -0.7290    4.7470   -0.6570 n         1 MOL     -0.060886
     42 C13        -1.7940    5.4260   -1.4620 c3        1 MOL     -0.088406
     43 C14        -3.2230    5.2560   -0.7130 c         1 MOL      0.544451
     44 O6         -4.2280    5.6410   -1.2790 o         1 MOL     -0.530895
     45 C15        -1.8270    4.8290   -2.9160 c3        1 MOL     -0.155360
     46 C16        -2.0230    3.3190   -3.0110 c         1 MOL      0.698491
     47 O7         -2.1580    2.5740   -2.0340 o         1 MOL     -0.696398
     48 O8         -2.1110    2.8580   -4.1690 o         1 MOL     -0.696398
     49 H21        -0.6900    3.7340   -0.5960 hn        1 MOL      0.129249
     50 H22        -1.6120    6.5020   -1.3880 h1        1 MOL      0.110304
     51 H23        -0.8760    5.0130   -3.4220 hc        1 MOL      0.053898
     52 H24        -2.5910    5.3510   -3.4920 hc        1 MOL      0.053898
     53 N5         -3.2590    4.8010    0.5200 n         1 MOL     -0.480861
     54 C17        -4.4020    4.3770    1.2960 c3        1 MOL      0.178444
     55 C18        -5.4290    3.4700    0.5160 c         1 MOL      0.351606
     56 O9         -6.6220    3.6310    0.6950 o         1 MOL     -0.546996
     57 H25        -2.3360    4.5790    0.8820 hn        1 MOL      0.270184
     58 H26        -4.9090    5.1670    1.8530 h1        1 MOL      0.027803
     59 H27        -4.0210    3.7400    2.0880 h1        1 MOL      0.027803
     60 N6         -4.9320    2.5830   -0.3930 n         1 MOL      0.001662
     61 C19        -5.8870    1.8260   -1.1880 c3        1 MOL     -0.136513
     62 C20        -6.4510    0.5210   -0.5240 c         1 MOL      0.399785
     63 O10        -7.2100   -0.2550   -1.0960 o         1 MOL     -0.480904
     64 C21        -5.3340    1.5240   -2.5920 c3        1 MOL     -0.263978
     65 C22        -4.7370    0.0850   -2.7450 c         1 MOL      0.688527
     66 N7         -5.2570   -0.7270   -3.6580 n         1 MOL     -0.767842
     67 O11        -3.8030   -0.2250   -2.0850 o         1 MOL     -0.648894
     68 H28        -3.9540    2.3510   -0.5000 hn        1 MOL      0.149830
     69 H29        -6.7570    2.4540   -1.3930 h1        1 MOL      0.172167
     70 H30        -4.5790    2.2170   -2.9680 hc        1 MOL      0.090070
     71 H31        -6.2680    1.4990   -3.1490 hc        1 MOL      0.090070
     72 H32        -5.9910   -0.3600   -4.2440 hn        1 MOL      0.367342
     73 H33        -4.9780   -1.7040   -3.6500 hn        1 MOL      0.367342
     74 N8         -6.0500    0.2890    0.7540 n         1 MOL     -0.211163
     75 C23        -6.5000   -0.8480    1.6120 c3        1 MOL     -0.240033
     76 C24        -5.6080   -2.0980    1.6380 c         1 MOL      0.686207
     77 O12        -5.9420   -3.0210    2.3730 o         1 MOL     -0.571946
     78 H34        -5.2520    0.8480    1.0320 hn        1 MOL      0.213568
     79 H35        -7.5410   -1.0800    1.3670 h1        1 MOL      0.118212
     80 H36        -6.5080   -0.5720    2.6590 h1        1 MOL      0.118212
     81 N9         -4.4610   -1.9660    1.0130 n         1 MOL     -0.467505
     82 C25        -3.5730   -3.1010    0.9240 c3        1 MOL      0.031239
     83 C26        -2.1340   -2.6400    0.7710 c         1 MOL      0.496536
     84 O13        -1.9040   -1.6770    0.0360 o         1 MOL     -0.587469
     85 C27        -3.8910   -3.9670   -0.3220 c3        1 MOL     -0.064482
     86 C28        -5.2810   -4.5490   -0.2700 ca        1 MOL      0.191121
     87 C29        -6.3370   -4.0440   -1.0480 ca        1 MOL     -0.315324
     88 C30        -5.4670   -5.7800    0.4060 ca        1 MOL     -0.315324
     89 C31        -7.5730   -4.6960   -1.1670 ca        1 MOL     -0.169878
     90 C32        -6.7830   -6.4290    0.3600 ca        1 MOL     -0.169878
     91 C33        -7.7840   -5.9190   -0.4750 ca        1 MOL      0.314250
     92 O14        -8.8710   -6.7440   -0.5830 oh        1 MOL     -0.503559
     93 H37        -4.1360   -1.0580    0.6960 hn        1 MOL      0.332546
     94 H38        -3.7370   -3.7230    1.8020 h1        1 MOL      0.066059
     95 H39        -3.1070   -4.7180   -0.3220 hc        1 MOL      0.030183
     96 H40        -3.7690   -3.4420   -1.2790 hc        1 MOL      0.030183
     97 H41        -6.1720   -3.1660   -1.6630 ha        1 MOL      0.173190
     98 H42        -4.6800   -6.1720    1.0240 ha        1 MOL      0.173190
     99 H43        -8.2840   -4.3820   -1.9210 ha        1 MOL      0.135382
    100 H44        -7.0060   -7.3330    0.8980 ha        1 MOL      0.135382
    101 H45        -8.8260   -7.4790    0.0310 ho        1 MOL      0.355770
    102 N10        -1.1510   -3.1340    1.5230 n         1 MOL     -0.373901
    103 C34         0.1960   -2.6640    1.6200 c3        1 MOL      0.024814
    104 C35         1.1080   -3.6320    0.8530 c         1 MOL      0.474881
    105 O15         0.9960   -4.8400    1.0450 o         1 MOL     -0.555605
    106 C36         0.7390   -2.4690    3.0450 c3        1 MOL      0.222556
    107 C37        -0.3260   -1.9390    3.9910 c3        1 MOL      0.274885
    108 C38         2.0630   -1.6530    3.0270 c3        1 MOL     -0.543414
    109 C39         0.0840   -1.5780    5.4200 c3        1 MOL     -0.299037
    110 H46        -1.3660   -3.9190    2.1170 hn        1 MOL      0.270151
    111 H47         0.2790   -1.6760    1.1860 h1        1 MOL      0.009234
    112 H48         0.9470   -3.4260    3.5060 hc        1 MOL     -0.047442
    113 H49        -1.1930   -2.6050    4.0120 hc        1 MOL     -0.065496
    114 H50        -0.7030   -0.9760    3.6310 hc        1 MOL     -0.065496
    115 H51         1.9170   -0.5780    2.8820 hc        1 MOL      0.122834
    116 H52         2.5100   -1.6880    4.0160 hc        1 MOL      0.122834
    117 H53         2.7300   -2.1490    2.3220 hc        1 MOL      0.122834
    118 H54        -0.8070   -1.3240    6.0020 hc        1 MOL      0.065459
    119 H55         0.6100   -2.3460    5.9770 hc        1 MOL      0.065459
    120 H56         0.7500   -0.7140    5.3540 hc        1 MOL      0.065459
    121 N11         2.0640   -3.1330    0.0240 n         1 MOL     -0.133018
    122 C40         2.9250   -3.9190   -0.8600 c3        1 MOL      0.028662
    123 C41         4.3510   -3.9470   -0.3620 c         1 MOL      0.367875
    124 O16         4.7430   -3.0540    0.3480 o         1 MOL     -0.308630
    125 C42         2.9030   -3.3780   -2.2470 c3        1 MOL      0.139483
    126 O17         1.7410   -3.6800   -2.9640 oh        1 MOL     -0.595175
    127 H57         2.0740   -2.1630   -0.2690 hn        1 MOL      0.112796
    128 H58         2.5850   -4.9610   -0.7980 h1        1 MOL      0.045681
    129 H59         3.8250   -3.6880   -2.7420 h1        1 MOL      0.024276
    130 H60         3.0770   -2.3090   -2.2290 h1        1 MOL      0.024276
    131 H61         1.9550   -4.4590   -3.4840 ho        1 MOL      0.415216
    132 N12         5.2030   -4.9110   -0.7310 n         1 MOL     -0.398192
    133 C43         6.6630   -4.8750   -0.3860 c3        1 MOL     -0.008083
    134 C44         7.3540   -3.5430   -0.7390 c         1 MOL      0.520762
    135 O18         8.0860   -3.0020    0.0540 o         1 MOL     -0.482886
    136 C45         7.2680   -6.0880   -1.1730 c3        1 MOL     -0.256661
    137 H62         4.8040   -5.5630   -1.4010 hn        1 MOL      0.266371
    138 H63         6.7180   -5.0690    0.6860 h1        1 MOL      0.122699
    139 H64         7.4500   -5.8890   -2.2320 hc        1 MOL      0.088900
    140 H65         8.2450   -6.4060   -0.8310 hc        1 MOL      0.088900
    141 H66         6.5950   -6.9470   -1.1820 hc        1 MOL      0.088900
    142 N13         7.1160   -2.9430   -1.9290 n         1 MOL     -0.384752
    143 C46         7.7750   -1.6670   -2.2910 c3        1 MOL      0.091489
    144 C47         7.3830   -0.6250   -1.2150 c         1 MOL      0.353113
    145 O19         8.2150    0.1930   -0.8440 o         1 MOL     -0.491015
    146 C48         7.2800   -1.2450   -3.6790 c3        1 MOL     -0.315334
    147 H67         6.6780   -3.4440   -2.7000 hn        1 MOL      0.245846
    148 H68         8.8540   -1.8300   -2.2500 h1        1 MOL      0.096117
    149 H69         6.1940   -1.2120   -3.7330 hc        1 MOL      0.095449
    150 H70         7.6510   -0.2460   -3.9060 hc        1 MOL      0.095449
    151 H71         7.6450   -1.8880   -4.4810 hc        1 MOL      0.095449
    152 N14         6.0980   -0.6190   -0.7680 n         1 MOL     -0.138952
    153 C49         5.5080    0.3830    0.1860 c3        1 MOL     -0.087371
    154 C50         5.9410    0.1690    1.6280 c         1 MOL      0.401882
    155 O20         6.1730    1.1450    2.3520 o         1 MOL     -0.531889
    156 C51         4.0220    0.4480    0.0600 c3        1 MOL      0.114966
    157 C52         3.4790    0.6380   -1.3290 c3        1 MOL      0.170252
    158 C53         1.9520    0.5600   -1.3330 c         1 MOL      0.682972
    159 O21         1.2720    1.4830   -1.7610 o         1 MOL     -0.702310
    160 O22         1.2570   -0.4730   -0.9640 o         1 MOL     -0.702310
    161 H72         5.4470   -1.3310   -1.0410 hn        1 MOL      0.100224
    162 H73         5.9480    1.3630   -0.0100 h1        1 MOL      0.078521
    163 H74         3.6600    1.3020    0.6290 hc        1 MOL      0.008150
    164 H75         3.5740   -0.4530    0.4690 hc        1 MOL      0.008150
    165 H76         3.9670   -0.0500   -2.0120 hc        1 MOL     -0.103581
    166 H77         3.7950    1.5830   -1.7690 hc        1 MOL     -0.103581
    167 N15         6.2620   -1.0500    2.0800 n         1 MOL     -0.028631
    168 C54         6.8000   -1.3630    3.3720 c3        1 MOL     -0.251749
    169 H78         7.5510   -2.1460    3.2730 h1        1 MOL      0.102586
    170 H79         7.2590   -0.4720    3.8010 h1        1 MOL      0.102586
    171 H80         5.9990   -1.7090    4.0250 h1        1 MOL      0.102586
    172 H81         5.9910   -1.8300    1.5010 hn        1 MOL      0.083950
    173 Ca1        -1.1250    0.2580   -1.6010 Ca        1 MOL      1.764710
    174 O23        -1.3530    0.1270   -4.5440 oh        1 MOL     -0.813576
    175 H82        -1.3210    0.9710   -4.9800 ho        1 MOL      0.390700
    176 H83        -2.0580   -0.3500   -4.9880 ho        1 MOL      0.390700
    177 O24        -0.3350   -1.9850   -2.7720 oh        1 MOL     -0.813576
    178 H84        -0.9070   -2.7210   -2.5480 ho        1 MOL      0.390700
    179 H85         0.5200   -2.3750   -2.9260 ho        1 MOL      0.390700
@<TRIPOS>BOND
     1    1    2 1   
     2    1    4 1   
     3    1    5 1   
     4    1    6 1   
     5    2    3 2   
     6    2    7 1   
     7    7    8 1   
     8    7   15 1   
     9    8    9 1   
    10    8   11 1   
    11    8   16 1   
    12    9   10 2   
    13    9   19 1   
    14   11   12 1   
    15   11   17 1   
    16   11   18 1   
    17   12   13 1   
    18   12   14 1   
    19   19   20 1   
    20   19   28 1   
    21   20   21 1   
    22   20   23 1   
    23   20   29 1   
    24   21   22 2   
    25   21   41 1   
    26   23   24 1   
    27   23   30 1   
    28   23   31 1   
    29   24   25 1   
    30   24   32 1   
    31   24   33 1   
    32   25   26 1   
    33   25   34 1   
    34   25   35 1   
    35   26   27 1   
    36   26   36 1   
    37   26   37 1   
    38   27   38 1   
    39   27   39 1   
    40   27   40 1   
    41   41   42 1   
    42   41   49 1   
    43   42   43 1   
    44   42   45 1   
    45   42   50 1   
    46   43   44 2   
    47   43   53 1   
    48   45   46 1   
    49   45   51 1   
    50   45   52 1   
    51   46   47 1   
    52   46   48 1   
    53   53   54 1   
    54   53   57 1   
    55   54   55 1   
    56   54   58 1   
    57   54   59 1   
    58   55   56 2   
    59   55   60 1   
    60   60   61 1   
    61   60   68 1   
    62   61   62 1   
    63   61   64 1   
    64   61   69 1   
    65   62   63 2   
    66   62   74 1   
    67   64   65 1   
    68   64   70 1   
    69   64   71 1   
    70   65   66 1   
    71   65   67 2   
    72   66   72 1   
    73   66   73 1   
    74   74   75 1   
    75   74   78 1   
    76   75   76 1   
    77   75   79 1   
    78   75   80 1   
    79   76   77 2   
    80   76   81 1   
    81   81   82 1   
    82   81   93 1   
    83   82   83 1   
    84   82   85 1   
    85   82   94 1   
    86   83   84 2   
    87   83  102 1   
    88   85   86 1   
    89   85   95 1   
    90   85   96 1   
    91   86   87 ar  
    92   86   88 ar  
    93   87   89 ar  
    94   87   97 1   
    95   88   90 ar  
    96   88   98 1   
    97   89   91 ar  
    98   89   99 1   
    99   90   91 ar  
   100   90  100 1   
   101   91   92 1   
   102   92  101 1   
   103  102  103 1   
   104  102  110 1   
   105  103  104 1   
   106  103  106 1   
   107  103  111 1   
   108  104  105 2   
   109  104  121 1   
   110  106  107 1   
   111  106  108 1   
   112  106  112 1   
   113  107  109 1   
   114  107  113 1   
   115  107  114 1   
   116  108  115 1   
   117  108  116 1   
   118  108  117 1   
   119  109  118 1   
   120  109  119 1   
   121  109  120 1   
   122  121  122 1   
   123  121  127 1   
   124  122  123 1   
   125  122  125 1   
   126  122  128 1   
   127  123  124 2   
   128  123  132 1   
   129  125  126 1   
   130  125  129 1   
   131  125  130 1   
   132  126  131 1   
   133  132  133 1   
   134  132  137 1   
   135  133  134 1   
   136  133  136 1   
   137  133  138 1   
   138  134  135 2   
   139  134  142 1   
   140  136  139 1   
   141  136  140 1   
   142  136  141 1   
   143  142  143 1   
   144  142  147 1   
   145  143  144 1   
   146  143  146 1   
   147  143  148 1   
   148  144  145 2   
   149  144  152 1   
   150  146  149 1   
   151  146  150 1   
   152  146  151 1   
   153  152  153 1   
   154  152  161 1   
   155  153  154 1   
   156  153  156 1   
   157  153  162 1   
   158  154  155 2   
   159  154  167 1   
   160  156  157 1   
   161  156  163 1   
   162  156  164 1   
   163  157  158 1   
   164  157  165 1   
   165  157  166 1   
   166  158  159 1   
   167  158  160 1   
   168  167  168 1   
   169  167  172 1   
   170  168  169 1   
   171  168  170 1   
   172  168  171 1   
   173  174  175 1   
   174  174  176 1   
   175  177  178 1   
   176  177  179 1   
@<TRIPOS>SUBSTRUCTURE
     1 MOL         1 TEMP              0 ****  ****    0 ROOT
