@<TRIPOS>MOLECULE
MOL
  189   185     1     0     0
SMALL
resp


@<TRIPOS>ATOM
      1 C1          0.3380   -4.3380    5.7390 c3        1 MOL     -0.342702
      2 C2          0.7000   -3.9960    4.2580 c         1 MOL      0.835587
      3 O1         -0.1650   -4.0470    3.3670 o         1 MOL     -0.615185
      4 H1          0.9020   -5.2150    6.0580 hc        1 MOL      0.073518
      5 H2          0.5890   -3.4930    6.3800 hc        1 MOL      0.073518
      6 H3         -0.7290   -4.5470    5.8140 hc        1 MOL      0.073518
      7 N1          1.9740   -3.6780    4.0760 n         1 MOL     -0.831930
      8 C3          2.5820   -3.4990    2.6850 c3        1 MOL      0.325746
      9 C4          2.4630   -4.7450    1.8470 c         1 MOL      0.582890
     10 O2          2.7450   -5.8370    2.3560 o         1 MOL     -0.599439
     11 C5          4.0800   -2.9880    2.8950 c3        1 MOL     -0.382498
     12 C6          4.6990   -2.5470    1.5650 c         1 MOL      0.716783
     13 O3          3.9310   -2.2350    0.5950 o         1 MOL     -0.642437
     14 O4          5.9120   -2.2960    1.6060 o         1 MOL     -0.642437
     15 H4          2.5940   -3.7200    4.8770 hn        1 MOL      0.374360
     16 H5          2.0080   -2.7930    2.0870 h1        1 MOL     -0.012033
     17 H6          4.7210   -3.7490    3.3530 hc        1 MOL      0.094529
     18 H7          4.1620   -2.1040    3.5130 hc        1 MOL      0.094529
     19 N2          2.1490   -4.5240    0.5720 n         1 MOL     -0.297180
     20 C7          2.1580   -5.4910   -0.5980 c3        1 MOL     -0.184424
     21 C8          2.9800   -5.1650   -1.8600 c         1 MOL      0.554989
     22 O5          2.9420   -5.9610   -2.8140 o         1 MOL     -0.563746
     23 C9          0.7110   -5.8320   -1.0260 c3        1 MOL      0.256496
     24 C10         0.0140   -4.5360   -1.4400 c3        1 MOL      0.186228
     25 C11        -0.1570   -6.3950    0.0500 c3        1 MOL     -0.352740
     26 C12        -1.1400   -4.7530   -2.2760 c3        1 MOL     -0.237237
     27 H8          2.0980   -3.5390    0.3580 hn        1 MOL      0.127785
     28 H9          2.6620   -6.3800   -0.2330 h1        1 MOL      0.095042
     29 H10         0.8070   -6.4800   -1.9010 hc        1 MOL     -0.036865
     30 H11         0.6960   -3.9600   -2.0590 hc        1 MOL      0.016858
     31 H12        -0.2690   -3.9150   -0.5860 hc        1 MOL      0.016858
     32 H13         0.3140   -7.2480    0.5400 hc        1 MOL      0.074507
     33 H14        -0.5370   -5.6650    0.7680 hc        1 MOL      0.074507
     34 H15        -1.0080   -6.8100   -0.4850 hc        1 MOL      0.074507
     35 H16        -0.8270   -5.1130   -3.2530 hc        1 MOL      0.033693
     36 H17        -1.9650   -5.3250   -1.8470 hc        1 MOL      0.033693
     37 H18        -1.5330   -3.7530   -2.4600 hc        1 MOL      0.033693
     38 N3          3.6700   -3.9910   -1.9390 n         1 MOL     -0.434024
     39 C13         4.4350   -3.5110   -3.0900 c3        1 MOL      0.122242
     40 C14         5.7370   -2.7810   -2.7800 c         1 MOL      0.406184
     41 O6          6.6110   -2.8460   -3.6190 o         1 MOL     -0.566079
     42 C15         3.5780   -2.5150   -3.9860 c3        1 MOL     -0.295702
     43 C16         2.9030   -1.2960   -3.2580 c         1 MOL      0.734147
     44 O7          3.4570   -0.9150   -2.1730 o         1 MOL     -0.686903
     45 O8          1.8980   -0.6890   -3.7170 o         1 MOL     -0.686903
     46 H19         3.5460   -3.3160   -1.1950 hn        1 MOL      0.254518
     47 H20         4.6820   -4.3610   -3.7320 h1        1 MOL      0.085595
     48 H21         2.7720   -3.1820   -4.2890 hc        1 MOL      0.078567
     49 H22         4.1510   -2.1900   -4.8590 hc        1 MOL      0.078567
     50 N4          5.9580   -2.2080   -1.5950 n         1 MOL     -0.146689
     51 C17         7.1910   -1.4700   -1.2730 c3        1 MOL     -0.098834
     52 C18         7.2460   -0.0450   -1.8450 c         1 MOL      0.436820
     53 O9          8.3430    0.5560   -1.8580 o         1 MOL     -0.582628
     54 H23         5.1810   -2.0100   -0.9790 hn        1 MOL      0.015277
     55 H24         8.1010   -2.0320   -1.5160 h1        1 MOL      0.085707
     56 H25         7.1930   -1.4070   -0.1870 h1        1 MOL      0.085707
     57 N5          6.2050    0.5570   -2.3640 n         1 MOL     -0.257546
     58 C19         6.3130    2.0640   -2.7050 c3        1 MOL      0.035900
     59 C20         6.8050    2.9070   -1.4860 c         1 MOL      0.560291
     60 O10         7.7270    3.6490   -1.7050 o         1 MOL     -0.580956
     61 C21         4.9730    2.6510   -3.2800 c3        1 MOL     -0.552267
     62 C22         3.7270    2.6020   -2.4340 c         1 MOL      0.943777
     63 O11         3.6950    2.0900   -1.3230 o         1 MOL     -0.745727
     64 O12         2.6730    3.0090   -2.9240 o         1 MOL     -0.745727
     65 H26         5.3720    0.0420   -2.6290 hn        1 MOL      0.278343
     66 H27         7.0930    2.0640   -3.4630 h1        1 MOL      0.083687
     67 H28         4.7520    2.0370   -4.1540 hc        1 MOL      0.140536
     68 H29         5.2290    3.6810   -3.5670 hc        1 MOL      0.140536
     69 N6          6.1480    2.8080   -0.3080 n         1 MOL     -0.163559
     70 C23         6.5040    3.5070    0.9490 c3        1 MOL     -0.177439
     71 C24         5.3030    4.0770    1.6950 c         1 MOL      0.450868
     72 O13         5.4120    4.4810    2.8640 o         1 MOL     -0.587411
     73 H30         5.4360    2.0940   -0.2090 hn        1 MOL      0.080847
     74 H31         7.1940    4.3250    0.7330 h1        1 MOL      0.101668
     75 H32         7.0830    2.7700    1.5170 h1        1 MOL      0.101668
     76 N7          4.1290    4.0000    1.0820 n         1 MOL     -0.116872
     77 C25         2.8080    4.3890    1.5750 c3        1 MOL      0.158533
     78 C26         1.8930    3.2110    1.7420 c         1 MOL      0.546601
     79 O14         1.9890    2.2200    1.0750 o         1 MOL     -0.490462
     80 C27         2.0480    5.4540    0.7150 c3        1 MOL     -0.007507
     81 C28         2.8060    6.8100    0.5690 c3        1 MOL     -0.131023
     82 C29         1.9960    7.8180   -0.2040 c         1 MOL      0.652803
     83 N8          2.3240    8.1020   -1.4570 n         1 MOL     -0.798668
     84 O15         1.1420    8.4870    0.3670 o         1 MOL     -0.586235
     85 H33         4.0810    3.5220    0.1870 hn        1 MOL      0.039520
     86 H34         2.9530    4.8310    2.5660 h1        1 MOL     -0.003767
     87 H35         1.0940    5.6480    1.2190 hc        1 MOL      0.036124
     88 H36         1.9140    4.9740   -0.2600 hc        1 MOL      0.036124
     89 H37         3.7460    6.6000    0.0530 hc        1 MOL      0.033120
     90 H38         3.1660    7.2110    1.5110 hc        1 MOL      0.033120
     91 H39         3.0260    7.6450   -2.0180 hn        1 MOL      0.360589
     92 H40         1.7160    8.7580   -1.9200 hn        1 MOL      0.360589
     93 N9          0.9990    3.3700    2.7200 n         1 MOL     -0.696275
     94 C30        -0.2260    2.5870    2.8220 c3        1 MOL      0.182148
     95 C31        -1.2210    2.9710    1.7030 c         1 MOL      0.538763
     96 O16        -1.6510    4.1350    1.7080 o         1 MOL     -0.560721
     97 C32        -0.6890    2.4520    4.2750 c3        1 MOL      0.158580
     98 C33        -1.3220    3.7840    4.7570 c3        1 MOL     -0.156781
     99 C34        -1.7530    1.3920    4.5050 c3        1 MOL     -0.156781
    100 H41         0.9550    4.2850    3.1330 hn        1 MOL      0.338868
    101 H42        -0.0050    1.5690    2.5000 h1        1 MOL     -0.016369
    102 H43         0.1250    2.1770    4.9440 hc        1 MOL      0.003481
    103 H44        -2.1710    4.1780    4.1950 hc        1 MOL      0.023773
    104 H45        -1.5330    3.7470    5.8190 hc        1 MOL      0.023773
    105 H46        -0.5910    4.6020    4.7050 hc        1 MOL      0.023773
    106 H47        -2.6380    1.6010    3.9010 hc        1 MOL      0.023773
    107 H48        -1.3710    0.4130    4.2270 hc        1 MOL      0.023773
    108 H49        -2.0080    1.3710    5.5640 hc        1 MOL      0.023773
    109 N10        -1.5770    2.0610    0.7850 n         1 MOL     -0.266040
    110 C35        -2.8400    2.1240   -0.0330 c3        1 MOL      0.199274
    111 C36        -4.1160    1.8190    0.7840 c         1 MOL      0.033918
    112 O17        -4.0380    1.1190    1.8110 o         1 MOL     -0.227085
    113 C37        -2.6480    1.1590   -1.2220 c3        1 MOL      0.050496
    114 C38        -3.5650    1.3560   -2.3970 c         1 MOL      0.468604
    115 N11        -3.3880    0.6460   -3.4520 n         1 MOL     -0.618915
    116 O18        -4.4250    2.2560   -2.4220 o         1 MOL     -0.509463
    117 H50        -0.9850    1.2420    0.7390 hn        1 MOL      0.061533
    118 H51        -2.8170    3.1390   -0.4460 h1        1 MOL      0.020363
    119 H52        -2.7500    0.1100   -0.9560 hc        1 MOL      0.000404
    120 H53        -1.6130    1.2890   -1.5550 hc        1 MOL      0.000404
    121 H54        -2.5490    0.0910   -3.3910 hn        1 MOL      0.341082
    122 H55        -3.9790    0.6440   -4.2690 hn        1 MOL      0.341082
    123 N12        -5.2900    2.2900    0.3330 n         1 MOL     -0.069344
    124 C39        -6.5850    1.9360    0.8940 c3        1 MOL      0.009646
    125 C40        -6.9040    0.4530    0.8100 c         1 MOL      0.354800
    126 O19        -7.8860   -0.0850    1.3610 o         1 MOL     -0.541969
    127 C41        -7.7360    2.7510    0.3150 c3        1 MOL     -0.182994
    128 C42        -8.0330    2.5220   -1.2000 ca        1 MOL      0.057518
    129 C43        -8.5840    1.3260   -1.6210 ca        1 MOL     -0.182954
    130 C44        -7.5720    3.4310   -2.1720 ca        1 MOL     -0.182954
    131 C45        -8.6100    0.9160   -2.9370 ca        1 MOL     -0.287036
    132 C46        -7.8000    3.0940   -3.5360 ca        1 MOL     -0.287036
    133 C47        -8.1720    1.8240   -3.9660 ca        1 MOL      0.346137
    134 O20        -8.0720    1.4500   -5.2550 oh        1 MOL     -0.479207
    135 H56        -5.1950    3.1120   -0.2470 hn        1 MOL      0.210280
    136 H57        -6.4320    2.1800    1.9490 h1        1 MOL      0.069858
    137 H58        -7.5270    3.8130    0.4640 hc        1 MOL      0.068571
    138 H59        -8.6720    2.5690    0.8390 hc        1 MOL      0.068571
    139 H60        -8.7520    0.5690   -0.8650 ha        1 MOL      0.141676
    140 H61        -7.0520    4.3240   -1.8490 ha        1 MOL      0.141676
    141 H62        -8.9870   -0.0690   -3.1180 ha        1 MOL      0.148612
    142 H63        -7.5410    3.8420   -4.2680 ha        1 MOL      0.148612
    143 H64        -8.4420    0.5580   -5.2760 ho        1 MOL      0.374717
    144 N13        -6.1910   -0.2670   -0.0560 n         1 MOL     -0.059999
    145 C48        -6.1720   -1.7670   -0.1790 c3        1 MOL      0.007971
    146 C49        -5.3660   -2.5080    0.8940 c         1 MOL      0.393772
    147 O21        -5.6800   -3.6650    1.1950 o         1 MOL     -0.540582
    148 C50        -5.5960   -2.0570   -1.5820 c3        1 MOL     -0.071709
    149 C51        -6.4530   -1.6480   -2.7820 c3        1 MOL     -0.107691
    150 C52        -5.9830   -2.2820   -4.0930 c         1 MOL      0.608264
    151 O22        -5.8560   -3.5390   -4.2030 o         1 MOL     -0.692813
    152 O23        -6.0490   -1.5020   -5.0750 o         1 MOL     -0.692813
    153 H65        -5.5390    0.2570   -0.6340 hn        1 MOL      0.172087
    154 H66        -7.2030   -2.1170   -0.0980 h1        1 MOL      0.072437
    155 H67        -5.5210   -3.1480   -1.5870 hc        1 MOL      0.031391
    156 H68        -4.6450   -1.5350   -1.7180 hc        1 MOL      0.031391
    157 H69        -6.5190   -0.5570   -2.8620 hc        1 MOL      0.041594
    158 H70        -7.4770   -1.9590   -2.5510 hc        1 MOL      0.041594
    159 N14        -4.3760   -1.8920    1.4680 n         1 MOL     -0.070856
    160 C53        -3.5370   -2.3120    2.5530 c3        1 MOL     -0.123019
    161 C54        -4.0930   -1.6970    3.8920 c         1 MOL      0.469569
    162 O24        -3.8740   -2.3240    4.9290 o         1 MOL     -0.569158
    163 C55        -2.0880   -1.7520    2.3130 c3        1 MOL      0.277689
    164 C56        -1.4190   -2.1430    1.0230 c3        1 MOL     -0.021013
    165 C57        -0.0740   -1.4310    0.6990 c         1 MOL      0.820753
    166 O25         0.1820   -0.3160    1.2510 o         1 MOL     -0.807290
    167 O26         0.8020   -1.9910   -0.0130 o         1 MOL     -0.807290
    168 H71        -4.2900   -0.9350    1.1630 hn        1 MOL     -0.117634
    169 H72        -3.4770   -3.4080    2.5800 h1        1 MOL      0.125061
    170 H73        -1.5050   -2.0060    3.1950 hc        1 MOL     -0.042448
    171 H74        -2.0940   -0.6650    2.3870 hc        1 MOL     -0.042448
    172 H75        -2.0500   -1.7960    0.2150 hc        1 MOL      0.008123
    173 H76        -1.3850   -3.2200    0.9200 hc        1 MOL      0.008123
    174 N15        -4.7700   -0.5700    3.9120 n         1 MOL     -0.151647
    175 C58        -5.2310    0.0460    5.1880 c3        1 MOL     -0.181754
    176 H77        -6.0680    0.7140    4.9860 h1        1 MOL      0.079979
    177 H78        -5.5490   -0.7370    5.8760 h1        1 MOL      0.079979
    178 H79        -4.4140    0.6120    5.6340 h1        1 MOL      0.079979
    179 H80        -4.8720   -0.1180    3.0260 hn        1 MOL      0.134985
    180 Ca1         2.5860   -0.1360    0.0520 Ca        1 MOL      1.752967
    181 O27         4.7930    0.4570    1.5300 oh        1 MOL     -0.748469
    182 H81         4.9710    0.7580    2.4190 ho        1 MOL      0.384808
    183 H82         5.4390   -0.2400    1.3790 ho        1 MOL      0.384808
    184 O28         2.2220   -0.3010    2.8740 oh        1 MOL     -0.748469
    185 H83         1.2830   -0.4140    2.6990 ho        1 MOL      0.384808
    186 H84         2.2770   -0.2650    3.8330 ho        1 MOL      0.384808
    187 O29         1.0950    1.0660   -1.6760 oh        1 MOL     -0.748469
    188 H85         1.6680    1.7990   -1.8900 ho        1 MOL      0.384808
    189 H86         1.0240    0.5630   -2.4830 ho        1 MOL      0.384808
@<TRIPOS>BOND
     1    1    2 1   
     2    1    4 1   
     3    1    5 1   
     4    1    6 1   
     5    2    3 2   
     6    2    7 1   
     7    7    8 1   
     8    7   15 1   
     9    8    9 1   
    10    8   11 1   
    11    8   16 1   
    12    9   10 2   
    13    9   19 1   
    14   11   12 1   
    15   11   17 1   
    16   11   18 1   
    17   12   13 1   
    18   12   14 1   
    19   19   20 1   
    20   19   27 1   
    21   20   21 1   
    22   20   23 1   
    23   20   28 1   
    24   21   22 2   
    25   21   38 1   
    26   23   24 1   
    27   23   25 1   
    28   23   29 1   
    29   24   26 1   
    30   24   30 1   
    31   24   31 1   
    32   25   32 1   
    33   25   33 1   
    34   25   34 1   
    35   26   35 1   
    36   26   36 1   
    37   26   37 1   
    38   38   39 1   
    39   38   46 1   
    40   39   40 1   
    41   39   42 1   
    42   39   47 1   
    43   40   41 2   
    44   40   50 1   
    45   42   43 1   
    46   42   48 1   
    47   42   49 1   
    48   43   44 1   
    49   43   45 1   
    50   50   51 1   
    51   50   54 1   
    52   51   52 1   
    53   51   55 1   
    54   51   56 1   
    55   52   53 2   
    56   52   57 1   
    57   57   58 1   
    58   57   65 1   
    59   58   59 1   
    60   58   61 1   
    61   58   66 1   
    62   59   60 2   
    63   59   69 1   
    64   61   62 1   
    65   61   67 1   
    66   61   68 1   
    67   62   63 1   
    68   62   64 1   
    69   69   70 1   
    70   69   73 1   
    71   70   71 1   
    72   70   74 1   
    73   70   75 1   
    74   71   72 2   
    75   71   76 1   
    76   76   77 1   
    77   76   85 1   
    78   77   78 1   
    79   77   80 1   
    80   77   86 1   
    81   78   79 2   
    82   78   93 1   
    83   80   81 1   
    84   80   87 1   
    85   80   88 1   
    86   81   82 1   
    87   81   89 1   
    88   81   90 1   
    89   82   83 1   
    90   82   84 2   
    91   83   91 1   
    92   83   92 1   
    93   93   94 1   
    94   93  100 1   
    95   94   95 1   
    96   94   97 1   
    97   94  101 1   
    98   95   96 2   
    99   95  109 1   
   100   97   98 1   
   101   97   99 1   
   102   97  102 1   
   103   98  103 1   
   104   98  104 1   
   105   98  105 1   
   106   99  106 1   
   107   99  107 1   
   108   99  108 1   
   109  109  110 1   
   110  109  117 1   
   111  110  111 1   
   112  110  113 1   
   113  110  118 1   
   114  111  112 2   
   115  111  123 1   
   116  113  114 1   
   117  113  119 1   
   118  113  120 1   
   119  114  115 1   
   120  114  116 2   
   121  115  121 1   
   122  115  122 1   
   123  123  124 1   
   124  123  135 1   
   125  124  125 1   
   126  124  127 1   
   127  124  136 1   
   128  125  126 2   
   129  125  144 1   
   130  127  128 1   
   131  127  137 1   
   132  127  138 1   
   133  128  129 ar  
   134  128  130 ar  
   135  129  131 ar  
   136  129  139 1   
   137  130  132 ar  
   138  130  140 1   
   139  131  133 ar  
   140  131  141 1   
   141  132  133 ar  
   142  132  142 1   
   143  133  134 1   
   144  134  143 1   
   145  144  145 1   
   146  144  153 1   
   147  145  146 1   
   148  145  148 1   
   149  145  154 1   
   150  146  147 2   
   151  146  159 1   
   152  148  149 1   
   153  148  155 1   
   154  148  156 1   
   155  149  150 1   
   156  149  157 1   
   157  149  158 1   
   158  150  151 1   
   159  150  152 1   
   160  159  160 1   
   161  159  168 1   
   162  160  161 1   
   163  160  163 1   
   164  160  169 1   
   165  161  162 2   
   166  161  174 1   
   167  163  164 1   
   168  163  170 1   
   169  163  171 1   
   170  164  165 1   
   171  164  172 1   
   172  164  173 1   
   173  165  166 1   
   174  165  167 1   
   175  174  175 1   
   176  174  179 1   
   177  175  176 1   
   178  175  177 1   
   179  175  178 1   
   180  181  182 1   
   181  181  183 1   
   182  184  185 1   
   183  184  186 1   
   184  187  188 1   
   185  187  189 1   
@<TRIPOS>SUBSTRUCTURE
     1 MOL         1 TEMP              0 ****  ****    0 ROOT
