@<TRIPOS>MOLECULE
MOL
  186   183     1     0     0
SMALL
resp


@<TRIPOS>ATOM
      1 C1          0.9980   -1.3510    6.4030 c3        1 MOL     -0.384464
      2 C2          1.3260   -1.4300    4.8910 c         1 MOL      0.831271
      3 O1          0.4720   -1.8580    4.1070 o         1 MOL     -0.621444
      4 H1          1.9230   -1.2430    6.9700 hc        1 MOL      0.086277
      5 H2          0.3550   -0.4910    6.5920 hc        1 MOL      0.086277
      6 H3          0.4880   -2.2630    6.7130 hc        1 MOL      0.086277
      7 N1          2.5420   -1.0590    4.4230 n         1 MOL     -0.783442
      8 C3          3.0240   -1.2140    3.0010 c3        1 MOL      0.437862
      9 C4          3.2680   -2.7620    2.7460 c         1 MOL      0.448668
     10 O2          3.9750   -3.4370    3.5000 o         1 MOL     -0.572267
     11 C5          4.3180   -0.3280    2.7650 c3        1 MOL     -0.263283
     12 C6          4.9560   -0.5180    1.3840 c         1 MOL      0.756018
     13 O3          4.1470   -0.8690    0.4680 o         1 MOL     -0.637725
     14 O4          6.1710   -0.4690    1.1810 o         1 MOL     -0.637725
     15 H4          3.1270   -0.6250    5.1250 hn        1 MOL      0.337531
     16 H5          2.2380   -0.8630    2.3360 h1        1 MOL     -0.037153
     17 H6          4.9570   -0.7010    3.5770 hc        1 MOL      0.022241
     18 H7          4.1140    0.7220    2.9360 hc        1 MOL      0.022241
     19 N2          2.5540   -3.3520    1.7710 n         1 MOL     -0.138154
     20 C7          2.6400   -4.7760    1.5730 c3        1 MOL      0.002138
     21 C8          3.7550   -4.9470    0.5950 c         1 MOL      0.514245
     22 O5          4.5490   -5.8670    0.7030 o         1 MOL     -0.614745
     23 C9          1.2560   -5.3080    1.0850 c3        1 MOL      0.253618
     24 C10         0.1040   -5.1430    2.0470 c3        1 MOL      0.007144
     25 C11         1.2560   -6.7430    0.5770 c3        1 MOL     -0.378477
     26 C12         0.3080   -5.8520    3.3680 c3        1 MOL     -0.149758
     27 H8          2.0320   -2.7550    1.1600 hn        1 MOL      0.088425
     28 H9          2.8470   -5.3850    2.4610 h1        1 MOL      0.044184
     29 H10         0.9680   -4.7070    0.2140 hc        1 MOL     -0.014115
     30 H11        -0.7720   -5.6100    1.6160 hc        1 MOL      0.020627
     31 H12        -0.0110   -4.0660    2.1790 hc        1 MOL      0.020627
     32 H13         1.7200   -7.4670    1.2480 hc        1 MOL      0.076572
     33 H14         0.2380   -7.0910    0.3870 hc        1 MOL      0.076572
     34 H15         1.8570   -6.7780   -0.3250 hc        1 MOL      0.076572
     35 H16        -0.5980   -5.9190    3.9700 hc        1 MOL      0.023828
     36 H17         0.7030   -6.8440    3.1610 hc        1 MOL      0.023828
     37 H18         1.0530   -5.3150    3.9680 hc        1 MOL      0.023828
     38 N3          3.9920   -4.0300   -0.3370 n         1 MOL     -0.148383
     39 C13         4.7830   -4.3700   -1.5960 c3        1 MOL     -0.106295
     40 C14         6.1380   -3.6100   -1.8650 c         1 MOL      0.431923
     41 O6          6.9550   -4.1070   -2.6810 o         1 MOL     -0.564974
     42 C15         3.7090   -4.3170   -2.7660 c3        1 MOL     -0.061717
     43 C16         3.3080   -2.8180   -2.9990 c         1 MOL      0.538619
     44 O7          3.8090   -2.2560   -3.9950 o         1 MOL     -0.615037
     45 O8          2.5540   -2.2930   -2.1400 o         1 MOL     -0.615037
     46 H19         3.4430   -3.1820   -0.3300 hn        1 MOL      0.038443
     47 H20         5.1540   -5.3920   -1.6060 h1        1 MOL      0.100678
     48 H21         2.8040   -4.8360   -2.4570 hc        1 MOL      0.011870
     49 H22         4.1330   -4.6900   -3.6930 hc        1 MOL      0.011870
     50 N4          6.4170   -2.6280   -1.0850 n         1 MOL      0.048087
     51 C17         7.7610   -2.0530   -0.9760 c3        1 MOL     -0.132207
     52 C18         7.9640   -0.7350   -1.6320 c         1 MOL      0.687777
     53 O9          8.6570   -0.6900   -2.5860 o         1 MOL     -0.587541
     54 H23         5.7310   -2.3970   -0.3740 hn        1 MOL      0.036405
     55 H24         8.4220   -2.8240   -1.3620 h1        1 MOL      0.044681
     56 H25         7.9940   -1.9950    0.0870 h1        1 MOL      0.044681
     57 N5          7.3590    0.3620   -1.1860 n         1 MOL     -0.638719
     58 C19         7.3950    1.7320   -1.8060 c3        1 MOL      0.268827
     59 C20         7.2530    2.7590   -0.6970 c         1 MOL      0.256477
     60 O10         7.4720    3.9230   -0.9950 o         1 MOL     -0.558649
     61 C21         6.2920    1.9290   -2.9000 c3        1 MOL      0.031956
     62 C22         4.9130    1.4340   -2.3410 c         1 MOL      0.660594
     63 O11         4.1770    0.7700   -3.1060 o         1 MOL     -0.745459
     64 O12         4.5520    1.5550   -1.1550 o         1 MOL     -0.745459
     65 H26         6.6650    0.2270   -0.4640 hn        1 MOL      0.305432
     66 H27         8.2870    1.9790   -2.3770 h1        1 MOL      0.018007
     67 H28         6.6760    1.5410   -3.8440 hc        1 MOL     -0.001376
     68 H29         6.1950    2.9910   -3.1530 hc        1 MOL     -0.001376
     69 N6          6.8490    2.3860    0.4920 n         1 MOL      0.020925
     70 C23         6.8040    3.2740    1.6170 c3        1 MOL     -0.147092
     71 C24         5.3860    3.8670    1.7060 c         1 MOL      0.507503
     72 O13         5.3310    4.9150    2.4140 o         1 MOL     -0.599984
     73 H30         6.8970    1.3870    0.6110 hn        1 MOL      0.077316
     74 H31         7.4750    4.1280    1.5900 h1        1 MOL      0.087265
     75 H32         6.9460    2.7040    2.5320 h1        1 MOL      0.087265
     76 N7          4.2930    3.3270    1.0850 n         1 MOL     -0.307925
     77 C25         3.0280    4.0280    1.1210 c3        1 MOL      0.135977
     78 C26         1.8470    3.0980    1.0090 c         1 MOL      0.361653
     79 O14         2.0210    1.8960    0.7100 o         1 MOL     -0.498419
     80 C27         2.8860    5.0510   -0.0120 c3        1 MOL     -0.106528
     81 C28         3.8760    6.1940    0.0770 c3        1 MOL     -0.077795
     82 C29         3.7840    7.2070   -1.0480 c         1 MOL      0.583151
     83 N8          4.9280    7.5080   -1.6530 n         1 MOL     -0.734431
     84 O15         2.7300    7.7770   -1.3800 o         1 MOL     -0.574243
     85 H33         4.3890    2.5130    0.5050 hn        1 MOL      0.218263
     86 H34         2.9320    4.5850    2.0470 h1        1 MOL      0.047484
     87 H35         1.8750    5.4660   -0.0670 hc        1 MOL      0.043056
     88 H36         3.0900    4.5880   -0.9730 hc        1 MOL      0.043056
     89 H37         4.9160    5.8520    0.0190 hc        1 MOL      0.054344
     90 H38         3.7600    6.7490    1.0130 hc        1 MOL      0.054344
     91 H39         5.8510    7.3110   -1.2750 hn        1 MOL      0.339886
     92 H40         4.8940    8.1090   -2.4690 hn        1 MOL      0.339886
     93 N9          0.6470    3.5580    1.3850 n         1 MOL     -0.353570
     94 C30        -0.5330    2.7320    1.6220 c3        1 MOL     -0.076029
     95 C31        -1.6790    3.1690    0.6980 c         1 MOL      0.514430
     96 O16        -2.2070    4.2300    0.9630 o         1 MOL     -0.554560
     97 C32        -0.9110    2.6260    3.1670 c3        1 MOL      0.239413
     98 C33        -2.0920    1.5830    3.4180 c3        1 MOL     -0.369752
     99 C34         0.3690    2.1720    3.9080 c3        1 MOL     -0.369752
    100 H41         0.5400    4.5230    1.6380 hn        1 MOL      0.280040
    101 H42        -0.1360    1.7500    1.3690 h1        1 MOL      0.127526
    102 H43        -1.2660    3.5600    3.5930 hc        1 MOL     -0.018863
    103 H44        -3.0310    1.9270    2.9860 hc        1 MOL      0.093218
    104 H45        -1.8010    0.6750    2.8820 hc        1 MOL      0.093218
    105 H46        -2.1700    1.3180    4.4690 hc        1 MOL      0.093218
    106 H47         1.1200    2.9700    3.9330 hc        1 MOL      0.093218
    107 H48         0.0940    1.8380    4.9060 hc        1 MOL      0.093218
    108 H49         0.8190    1.3150    3.4170 hc        1 MOL      0.093218
    109 N10        -1.9790    2.3880   -0.3370 n         1 MOL     -0.349683
    110 C35        -3.0900    2.6580   -1.2430 c3        1 MOL      0.135418
    111 C36        -4.3980    2.2320   -0.5930 c         1 MOL      0.336127
    112 O17        -4.3340    1.6440    0.4590 o         1 MOL     -0.279935
    113 C37        -2.8380    2.1980   -2.7240 c3        1 MOL     -0.399146
    114 C38        -3.4130    0.8190   -2.9850 c         1 MOL      0.693866
    115 N11        -2.7170   -0.2150   -2.4890 n         1 MOL     -0.726752
    116 O18        -4.4640    0.5990   -3.5860 o         1 MOL     -0.617740
    117 H50        -1.5260    1.4930   -0.4530 hn        1 MOL      0.193143
    118 H51        -3.1430    3.7490   -1.2060 h1        1 MOL      0.067910
    119 H52        -1.7690    2.1580   -2.9190 hc        1 MOL      0.128866
    120 H53        -3.2780    2.9330   -3.4050 hc        1 MOL      0.128866
    121 H54        -1.8660   -0.1160   -1.9490 hn        1 MOL      0.377247
    122 H55        -3.1900   -1.0920   -2.6780 hn        1 MOL      0.377247
    123 N12        -5.5680    2.5440   -1.1220 n         1 MOL     -0.493124
    124 C39        -6.8790    2.1290   -0.5470 c3        1 MOL      0.175467
    125 C40        -7.0580    0.6200   -0.2810 c         1 MOL      0.664213
    126 O19        -7.5380    0.2130    0.8030 o         1 MOL     -0.544342
    127 C41        -8.0420    2.6930   -1.4490 c3        1 MOL     -0.235968
    128 C42        -9.4660    2.3610   -0.8140 ca        1 MOL      0.118658
    129 C43        -9.8240    3.1010    0.3110 ca        1 MOL     -0.258529
    130 C44       -10.2560    1.2990   -1.3240 ca        1 MOL     -0.258529
    131 C45       -10.9480    2.7160    1.0370 ca        1 MOL     -0.149816
    132 C46       -11.4820    0.9700   -0.6270 ca        1 MOL     -0.149816
    133 C47       -11.8470    1.7980    0.4390 ca        1 MOL      0.240534
    134 O20       -13.0020    1.6010    1.1380 oh        1 MOL     -0.497421
    135 H56        -5.5890    3.1500   -1.9200 hn        1 MOL      0.296476
    136 H57        -7.0770    2.5250    0.4540 h1        1 MOL      0.023781
    137 H58        -8.0290    2.1820   -2.4040 hc        1 MOL      0.078933
    138 H59        -7.9450    3.7710   -1.6130 hc        1 MOL      0.078933
    139 H60        -9.0190    3.6750    0.7520 ha        1 MOL      0.163449
    140 H61        -9.8940    0.6830   -2.1320 ha        1 MOL      0.163449
    141 H62       -10.9840    2.9770    2.0790 ha        1 MOL      0.131302
    142 H63       -12.1300    0.1550   -0.9100 ha        1 MOL      0.131302
    143 H64       -13.2760    0.7130    0.8720 ho        1 MOL      0.357408
    144 N13        -6.6900   -0.2200   -1.2490 n         1 MOL     -0.399044
    145 C48        -6.7500   -1.6730   -1.0980 c3        1 MOL     -0.189293
    146 C49        -5.8300   -2.2380    0.0250 c         1 MOL      0.353270
    147 O21        -6.1050   -3.2650    0.5700 o         1 MOL     -0.494144
    148 C50        -6.3340   -2.2120   -2.4040 c3        1 MOL      0.286072
    149 C51        -6.8900   -3.6420   -2.6150 c3        1 MOL     -0.274637
    150 C52        -6.5020   -4.2240   -3.9160 c         1 MOL      0.653819
    151 O22        -5.2790   -4.4390   -4.0960 o         1 MOL     -0.730616
    152 O23        -7.3130   -4.1720   -4.8650 o         1 MOL     -0.730616
    153 H65        -6.2600    0.1250   -2.0940 hn        1 MOL      0.226952
    154 H66        -7.7610   -2.0170   -0.8940 h1        1 MOL      0.123729
    155 H67        -5.2350   -2.2300   -2.4160 hc        1 MOL      0.001839
    156 H68        -6.7750   -1.6310   -3.2040 hc        1 MOL      0.001839
    157 H69        -7.9720   -3.7060   -2.4910 hc        1 MOL      0.028590
    158 H70        -6.4010   -4.2670   -1.8700 hc        1 MOL      0.028590
    159 N14        -4.6460   -1.6680    0.2900 n         1 MOL      0.001598
    160 C53        -3.6720   -1.8960    1.4410 c3        1 MOL     -0.193258
    161 C54        -4.2470   -1.3420    2.7610 c         1 MOL      0.444103
    162 O24        -4.1330   -1.9520    3.8300 o         1 MOL     -0.545199
    163 C55        -2.2240   -1.3390    1.1670 c3        1 MOL     -0.170864
    164 C56        -1.4850   -2.1230    0.0720 c3        1 MOL      0.205264
    165 C57        -0.2220   -1.3680   -0.3330 c         1 MOL      0.470883
    166 O25         0.8510   -1.4530    0.2200 o         1 MOL     -0.626501
    167 O26        -0.2900   -0.4810   -1.2120 o         1 MOL     -0.626501
    168 H71        -4.3740   -0.9460   -0.3690 hn        1 MOL      0.021620
    169 H72        -3.5800   -2.9810    1.5110 h1        1 MOL      0.137729
    170 H73        -1.7160   -1.3360    2.1280 hc        1 MOL      0.131180
    171 H74        -2.2720   -0.3220    0.7560 hc        1 MOL      0.131180
    172 H75        -2.0310   -2.2500   -0.8610 hc        1 MOL     -0.046086
    173 H76        -1.4380   -3.1400    0.4380 hc        1 MOL     -0.046086
    174 N15        -5.2130   -0.4030    2.6620 n         1 MOL      0.038406
    175 C58        -5.7690    0.2820    3.8510 c3        1 MOL     -0.197123
    176 H77        -5.0020    0.3490    4.6220 h1        1 MOL      0.073582
    177 H78        -6.0940    1.2840    3.5740 h1        1 MOL      0.073582
    178 H79        -6.6180   -0.2850    4.2330 h1        1 MOL      0.073582
    179 H80        -5.2920    0.0520    1.7720 hn        1 MOL     -0.065211
    180 Ca1         2.4000    0.0330   -1.2310 Ca        1 MOL      1.696162
    181 O27         1.5120    2.4310   -2.0540 oh        1 MOL     -0.835888
    182 H81         1.9030    3.2670   -1.8440 ho        1 MOL      0.405055
    183 H82         1.3510    2.4630   -2.9980 ho        1 MOL      0.405055
    184 O28         1.4310   -0.0260   -3.8440 oh        1 MOL     -0.835888
    185 H83         0.9710   -0.6750   -4.3780 ho        1 MOL      0.405055
    186 H84         2.2500    0.1350   -4.3050 ho        1 MOL      0.405055
@<TRIPOS>BOND
     1    1    2 1   
     2    1    4 1   
     3    1    5 1   
     4    1    6 1   
     5    2    3 2   
     6    2    7 1   
     7    7    8 1   
     8    7   15 1   
     9    8    9 1   
    10    8   11 1   
    11    8   16 1   
    12    9   10 2   
    13    9   19 1   
    14   11   12 1   
    15   11   17 1   
    16   11   18 1   
    17   12   13 1   
    18   12   14 1   
    19   19   20 1   
    20   19   27 1   
    21   20   21 1   
    22   20   23 1   
    23   20   28 1   
    24   21   22 2   
    25   21   38 1   
    26   23   24 1   
    27   23   25 1   
    28   23   29 1   
    29   24   26 1   
    30   24   30 1   
    31   24   31 1   
    32   25   32 1   
    33   25   33 1   
    34   25   34 1   
    35   26   35 1   
    36   26   36 1   
    37   26   37 1   
    38   38   39 1   
    39   38   46 1   
    40   39   40 1   
    41   39   42 1   
    42   39   47 1   
    43   40   41 2   
    44   40   50 1   
    45   42   43 1   
    46   42   48 1   
    47   42   49 1   
    48   43   44 1   
    49   43   45 1   
    50   50   51 1   
    51   50   54 1   
    52   51   52 1   
    53   51   55 1   
    54   51   56 1   
    55   52   53 2   
    56   52   57 1   
    57   57   58 1   
    58   57   65 1   
    59   58   59 1   
    60   58   61 1   
    61   58   66 1   
    62   59   60 2   
    63   59   69 1   
    64   61   62 1   
    65   61   67 1   
    66   61   68 1   
    67   62   63 1   
    68   62   64 1   
    69   69   70 1   
    70   69   73 1   
    71   70   71 1   
    72   70   74 1   
    73   70   75 1   
    74   71   72 2   
    75   71   76 1   
    76   76   77 1   
    77   76   85 1   
    78   77   78 1   
    79   77   80 1   
    80   77   86 1   
    81   78   79 2   
    82   78   93 1   
    83   80   81 1   
    84   80   87 1   
    85   80   88 1   
    86   81   82 1   
    87   81   89 1   
    88   81   90 1   
    89   82   83 1   
    90   82   84 2   
    91   83   91 1   
    92   83   92 1   
    93   93   94 1   
    94   93  100 1   
    95   94   95 1   
    96   94   97 1   
    97   94  101 1   
    98   95   96 2   
    99   95  109 1   
   100   97   98 1   
   101   97   99 1   
   102   97  102 1   
   103   98  103 1   
   104   98  104 1   
   105   98  105 1   
   106   99  106 1   
   107   99  107 1   
   108   99  108 1   
   109  109  110 1   
   110  109  117 1   
   111  110  111 1   
   112  110  113 1   
   113  110  118 1   
   114  111  112 2   
   115  111  123 1   
   116  113  114 1   
   117  113  119 1   
   118  113  120 1   
   119  114  115 1   
   120  114  116 2   
   121  115  121 1   
   122  115  122 1   
   123  123  124 1   
   124  123  135 1   
   125  124  125 1   
   126  124  127 1   
   127  124  136 1   
   128  125  126 2   
   129  125  144 1   
   130  127  128 1   
   131  127  137 1   
   132  127  138 1   
   133  128  129 ar  
   134  128  130 ar  
   135  129  131 ar  
   136  129  139 1   
   137  130  132 ar  
   138  130  140 1   
   139  131  133 ar  
   140  131  141 1   
   141  132  133 ar  
   142  132  142 1   
   143  133  134 1   
   144  134  143 1   
   145  144  145 1   
   146  144  153 1   
   147  145  146 1   
   148  145  148 1   
   149  145  154 1   
   150  146  147 2   
   151  146  159 1   
   152  148  149 1   
   153  148  155 1   
   154  148  156 1   
   155  149  150 1   
   156  149  157 1   
   157  149  158 1   
   158  150  151 1   
   159  150  152 1   
   160  159  160 1   
   161  159  168 1   
   162  160  161 1   
   163  160  163 1   
   164  160  169 1   
   165  161  162 2   
   166  161  174 1   
   167  163  164 1   
   168  163  170 1   
   169  163  171 1   
   170  164  165 1   
   171  164  172 1   
   172  164  173 1   
   173  165  166 1   
   174  165  167 1   
   175  174  175 1   
   176  174  179 1   
   177  175  176 1   
   178  175  177 1   
   179  175  178 1   
   180  181  182 1   
   181  181  183 1   
   182  184  185 1   
   183  184  186 1   
@<TRIPOS>SUBSTRUCTURE
     1 MOL         1 TEMP              0 ****  ****    0 ROOT
