@<TRIPOS>MOLECULE
MOL
  183   181     1     0     0
SMALL
resp


@<TRIPOS>ATOM
      1 C1         -0.9030    2.0510    6.2820 c3        1 MOL     -0.368900
      2 C2         -1.1470    1.9290    4.7140 c         1 MOL      0.729799
      3 O1         -0.2990    2.3050    3.9360 o         1 MOL     -0.573507
      4 H1         -0.4630    3.0240    6.5060 hc        1 MOL      0.086742
      5 H2         -1.8530    1.9530    6.8070 hc        1 MOL      0.086742
      6 H3         -0.2240    1.2630    6.6070 hc        1 MOL      0.086742
      7 N1         -2.3250    1.4540    4.3140 n         1 MOL     -0.658485
      8 C3         -2.8370    1.3750    2.9370 c3        1 MOL      0.338311
      9 C4         -3.2630    2.8110    2.5490 c         1 MOL      0.474141
     10 O2         -4.1230    3.4340    3.2110 o         1 MOL     -0.584479
     11 C5         -3.9590    0.3220    2.9800 c3        1 MOL     -0.448836
     12 C6         -4.5900    0.1350    1.6100 c         1 MOL      0.959121
     13 O3         -5.7610   -0.3090    1.5440 o         1 MOL     -0.715955
     14 O4         -3.9680    0.6010    0.6090 o         1 MOL     -0.715955
     15 H4         -2.9140    1.0440    5.0210 hn        1 MOL      0.325436
     16 H5         -2.1140    1.0140    2.2040 h1        1 MOL      0.016231
     17 H6         -4.7360    0.6750    3.6550 hc        1 MOL      0.076455
     18 H7         -3.4690   -0.5940    3.2790 hc        1 MOL      0.076455
     19 N2         -2.7380    3.3440    1.4230 n         1 MOL     -0.291618
     20 C7         -3.0200    4.7340    0.9150 c3        1 MOL     -0.005386
     21 C8         -4.0660    4.7570   -0.2020 c         1 MOL      0.442676
     22 O5         -4.7560    5.7640   -0.4750 o         1 MOL     -0.584237
     23 C9         -1.7040    5.4080    0.5840 c3        1 MOL      0.319855
     24 C10        -0.9030    5.6820    1.8790 c3        1 MOL     -0.020201
     25 C11        -1.9280    6.8000   -0.1330 c3        1 MOL     -0.354453
     26 C12         0.5260    6.1050    1.6460 c3        1 MOL     -0.070115
     27 H8         -2.1130    2.7510    0.8900 hn        1 MOL      0.144707
     28 H9         -3.4640    5.3150    1.7220 h1        1 MOL      0.052911
     29 H10        -1.1970    4.8240   -0.1810 hc        1 MOL     -0.014669
     30 H11        -0.8140    4.7050    2.3690 hc        1 MOL      0.005972
     31 H12        -1.5160    6.3110    2.5150 hc        1 MOL      0.005972
     32 H13        -2.6110    6.6910   -0.9760 hc        1 MOL      0.068995
     33 H14        -2.3190    7.5490    0.5580 hc        1 MOL      0.068995
     34 H15        -1.0080    7.1080   -0.6360 hc        1 MOL      0.068995
     35 H16         0.5320    7.1410    1.2850 hc        1 MOL      0.001887
     36 H17         1.0510    6.1390    2.5970 hc        1 MOL      0.001887
     37 H18         0.9910    5.4070    0.9600 hc        1 MOL      0.001887
     38 N3         -4.1500    3.6840   -1.0300 n         1 MOL     -0.248232
     39 C13        -5.0840    3.4980   -2.1530 c3        1 MOL     -0.101946
     40 C14        -6.2750    2.6020   -1.8320 c         1 MOL      0.549802
     41 O6         -7.1740    2.3950   -2.7020 o         1 MOL     -0.573739
     42 C15        -4.2850    3.2310   -3.4070 c3        1 MOL      0.000122
     43 C16        -3.1470    2.2270   -3.4220 c         1 MOL      0.660575
     44 O7         -2.7980    1.7390   -2.3130 o         1 MOL     -0.679766
     45 O8         -2.6250    1.8890   -4.4650 o         1 MOL     -0.679766
     46 H19        -3.3880    3.0120   -1.0600 hn        1 MOL      0.168593
     47 H20        -5.6440    4.3970   -2.3930 h1        1 MOL      0.111234
     48 H21        -3.9420    4.2010   -3.7970 hc        1 MOL      0.009450
     49 H22        -4.9510    3.0420   -4.2550 hc        1 MOL      0.009450
     50 N4         -6.4780    2.1130   -0.5960 n         1 MOL     -0.346637
     51 C17        -7.7310    1.5180   -0.2510 c3        1 MOL     -0.126737
     52 C18        -8.0500    0.1930   -0.9170 c         1 MOL      0.449029
     53 O9         -9.2730   -0.2080   -0.9620 o         1 MOL     -0.639684
     54 H23        -5.7580    1.9060    0.0760 hn        1 MOL      0.243875
     55 H24        -8.5760    2.1270   -0.5750 h1        1 MOL      0.096318
     56 H25        -7.8560    1.4350    0.8290 h1        1 MOL      0.096318
     57 N5         -7.0810   -0.5430   -1.4180 n         1 MOL     -0.013378
     58 C19        -7.2890   -1.8370   -2.1540 c3        1 MOL     -0.115327
     59 C20        -7.1960   -2.9990   -1.1610 c         1 MOL      0.475145
     60 O10        -7.5950   -4.0770   -1.5520 o         1 MOL     -0.554157
     61 C21        -6.1730   -2.0080   -3.1660 c3        1 MOL     -0.135727
     62 C22        -4.6970   -1.7900   -2.7600 c         1 MOL      0.699295
     63 O11        -3.8460   -1.7710   -3.6850 o         1 MOL     -0.680119
     64 O12        -4.4150   -1.6110   -1.5400 o         1 MOL     -0.680119
     65 H26        -6.1330   -0.2540   -1.2260 hn        1 MOL      0.070219
     66 H27        -8.2340   -1.8740   -2.6940 h1        1 MOL      0.117087
     67 H28        -6.2620   -1.2460   -3.9400 hc        1 MOL      0.031427
     68 H29        -6.2780   -3.0110   -3.5800 hc        1 MOL      0.031427
     69 N6         -6.8400   -2.7230    0.0870 n         1 MOL     -0.146787
     70 C23        -6.9030   -3.6390    1.1980 c3        1 MOL     -0.073305
     71 C24        -5.6300   -4.4290    1.4240 c         1 MOL      0.423025
     72 O13        -5.5560   -5.6630    1.7570 o         1 MOL     -0.556011
     73 H30        -6.5090   -1.7900    0.2780 hn        1 MOL      0.176873
     74 H31        -7.7950   -4.2650    1.0880 h1        1 MOL      0.060622
     75 H32        -7.0430   -2.9530    2.0310 h1        1 MOL      0.060622
     76 N7         -4.4300   -3.8160    1.0610 n         1 MOL      0.043017
     77 C25        -3.0320   -4.3160    1.2690 c3        1 MOL     -0.159465
     78 C26        -2.0230   -3.1530    1.4230 c         1 MOL      0.605573
     79 O14        -2.1990   -1.9800    1.1820 o         1 MOL     -0.555930
     80 C27        -2.5940   -5.3880    0.2140 c3        1 MOL     -0.053437
     81 C28        -2.7620   -5.0000   -1.3320 c3        1 MOL     -0.070578
     82 C29        -1.7120   -4.0290   -1.9570 c         1 MOL      0.533747
     83 N8         -1.0020   -4.4240   -3.0660 n         1 MOL     -0.830051
     84 O15        -1.6380   -2.8920   -1.5930 o         1 MOL     -0.413412
     85 H33        -4.4450   -2.8650    0.7200 hn        1 MOL     -0.050604
     86 H34        -3.1330   -4.8300    2.2190 h1        1 MOL      0.058485
     87 H35        -3.2690   -6.2510    0.2220 hc        1 MOL      0.038409
     88 H36        -1.5490   -5.6280    0.3940 hc        1 MOL      0.038409
     89 H37        -3.7380   -4.5730   -1.5730 hc        1 MOL      0.040492
     90 H38        -2.5450   -5.9570   -1.8040 hc        1 MOL      0.040492
     91 H39        -1.0710   -5.3650   -3.4470 hn        1 MOL      0.375736
     92 H40        -0.8720   -3.6560   -3.6940 hn        1 MOL      0.375736
     93 N9         -0.8580   -3.5400    1.9310 n         1 MOL     -0.467519
     94 C30         0.2790   -2.7320    2.1300 c3        1 MOL     -0.222435
     95 C31         1.4750   -3.3120    1.3130 c         1 MOL      0.544275
     96 O16         2.1370   -4.3130    1.6770 o         1 MOL     -0.567670
     97 C32         0.4910   -2.6420    3.6400 c3        1 MOL      0.246789
     98 C33         1.7990   -2.0750    4.1960 c3        1 MOL     -0.241167
     99 C34        -0.6150   -1.7700    4.2240 c3        1 MOL     -0.241167
    100 H41        -0.7590   -4.4950    2.2580 hn        1 MOL      0.305734
    101 H42         0.0620   -1.7640    1.6880 h1        1 MOL      0.246924
    102 H43         0.4140   -3.6250    4.1230 hc        1 MOL     -0.014806
    103 H44         1.9240   -1.1270    3.6640 hc        1 MOL      0.051033
    104 H45         1.8480   -1.9600    5.2750 hc        1 MOL      0.051033
    105 H46         2.6450   -2.6140    3.7710 hc        1 MOL      0.051033
    106 H47        -1.6120   -2.1910    4.0740 hc        1 MOL      0.051033
    107 H48        -0.5740   -1.7110    5.3190 hc        1 MOL      0.051033
    108 H49        -0.5690   -0.8100    3.7290 hc        1 MOL      0.051033
    109 N10         1.7860   -2.5820    0.2360 n         1 MOL     -0.160596
    110 C35         2.9250   -2.8820   -0.5630 c3        1 MOL     -0.035191
    111 C36         4.1400   -2.2300    0.0620 c         1 MOL      0.475401
    112 O17         4.0960   -1.3160    0.8950 o         1 MOL     -0.320514
    113 C37         2.5740   -2.3830   -2.0280 c3        1 MOL     -0.234661
    114 C38         2.8750   -0.9070   -2.3690 c         1 MOL      0.497345
    115 N11         2.1010    0.0390   -1.9200 n         1 MOL     -0.459988
    116 O18         3.8350   -0.6510   -3.0940 o         1 MOL     -0.517163
    117 H50         1.2400   -1.7540    0.0570 hn        1 MOL      0.006581
    118 H51         3.1050   -3.9530   -0.4520 h1        1 MOL      0.071335
    119 H52         1.5130   -2.5380   -2.2370 hc        1 MOL      0.095104
    120 H53         3.2150   -2.9140   -2.7340 hc        1 MOL      0.095104
    121 H54         1.2960   -0.2370   -1.3820 hn        1 MOL      0.287126
    122 H55         2.2010    0.9200   -2.4150 hn        1 MOL      0.287126
    123 N12         5.3250   -2.5810   -0.4860 n         1 MOL     -0.477664
    124 C39         6.6190   -2.0240   -0.1000 c3        1 MOL      0.108110
    125 C40         6.6690   -0.4760   -0.1180 c         1 MOL      0.455484
    126 O19         7.0790    0.1500    0.8870 o         1 MOL     -0.535412
    127 C41         7.7080   -2.5680   -1.0900 c3        1 MOL     -0.201978
    128 C42         9.1180   -2.0510   -0.8600 ca        1 MOL      0.064856
    129 C43         9.8150   -2.5950    0.2840 ca        1 MOL     -0.168721
    130 C44         9.7070   -0.9830   -1.5230 ca        1 MOL     -0.168721
    131 C45        11.0560   -2.1000    0.6710 ca        1 MOL     -0.262590
    132 C46        10.9150   -0.3980   -1.0530 ca        1 MOL     -0.262590
    133 C47        11.6020   -1.0110    0.0000 ca        1 MOL      0.402717
    134 O20        12.9100   -0.5900    0.2070 oh        1 MOL     -0.602159
    135 H56         5.3690   -3.3430   -1.1480 hn        1 MOL      0.295173
    136 H57         6.8800   -2.4240    0.8800 h1        1 MOL      0.075441
    137 H58         7.4970   -2.2210   -2.1040 hc        1 MOL      0.072602
    138 H59         7.7460   -3.6550   -1.1400 hc        1 MOL      0.072602
    139 H60         9.4450   -3.2670    1.0400 ha        1 MOL      0.135552
    140 H61         9.1490   -0.5180   -2.3230 ha        1 MOL      0.135552
    141 H62        11.6290   -2.4350    1.5280 ha        1 MOL      0.146006
    142 H63        11.2830    0.5180   -1.4940 ha        1 MOL      0.146006
    143 H64        13.2180    0.1440   -0.3310 ho        1 MOL      0.408198
    144 N13         6.1240    0.1750   -1.1920 n         1 MOL     -0.050995
    145 C48         6.0890    1.6500   -1.1860 c3        1 MOL      0.001505
    146 C49         5.2420    2.1960    0.0090 c         1 MOL      0.291577
    147 O21         5.6770    3.2520    0.4940 o         1 MOL     -0.533391
    148 C50         5.7370    2.2000   -2.5410 c3        1 MOL      0.203075
    149 C51         6.8770    2.0650   -3.5870 c3        1 MOL     -0.275176
    150 C52         6.5030    2.6410   -4.9510 c         1 MOL      0.647678
    151 O22         6.4210    1.8830   -5.9820 o         1 MOL     -0.714441
    152 O23         6.1650    3.8720   -5.1080 o         1 MOL     -0.714441
    153 H65         5.6310   -0.4090   -1.8450 hn        1 MOL      0.118353
    154 H66         7.1080    2.0020   -1.0610 h1        1 MOL      0.073634
    155 H67         5.5710    3.2780   -2.4420 hc        1 MOL     -0.015513
    156 H68         4.8040    1.8260   -2.9600 hc        1 MOL     -0.015513
    157 H69         7.0910    0.9900   -3.6610 hc        1 MOL      0.016369
    158 H70         7.7330    2.5200   -3.0900 hc        1 MOL      0.016369
    159 N14         4.3460    1.5350    0.6590 n         1 MOL      0.077769
    160 C53         3.5950    1.9380    1.8610 c3        1 MOL     -0.155849
    161 C54         4.2970    1.5870    3.1570 c         1 MOL      0.469862
    162 O24         4.2290    2.2990    4.1130 o         1 MOL     -0.574089
    163 C55         2.1500    1.3640    1.8200 c3        1 MOL      0.132501
    164 C56         1.2390    2.0910    0.8570 c3        1 MOL      0.035949
    165 C57         0.1320    1.2050    0.3460 c         1 MOL      0.536588
    166 O25        -0.9900    1.6490    0.1210 o         1 MOL     -0.636460
    167 O26         0.2150   -0.0540    0.1330 o         1 MOL     -0.636460
    168 H71         4.1720    0.5870    0.3350 hn        1 MOL     -0.218378
    169 H72         3.4240    3.0180    1.8460 h1        1 MOL      0.105902
    170 H73         1.6910    1.3860    2.8140 hc        1 MOL      0.003147
    171 H74         2.2470    0.3080    1.5600 hc        1 MOL      0.003147
    172 H75         1.8230    2.4450    0.0070 hc        1 MOL      0.020998
    173 H76         0.8360    2.9880    1.3080 hc        1 MOL      0.020998
    174 N15         5.1050    0.5670    3.1450 n         1 MOL     -0.012606
    175 C58         5.8170    0.0310    4.3320 c3        1 MOL     -0.282641
    176 H77         6.2330    0.8580    4.9090 h1        1 MOL      0.096740
    177 H78         5.1180   -0.5290    4.9540 h1        1 MOL      0.096740
    178 H79         6.6230   -0.6260    4.0080 h1        1 MOL      0.096740
    179 H80         5.1600    0.0610    2.2720 hn        1 MOL      0.090676
    180 Ca1        -2.1690   -0.4110   -0.8590 Ca        1 MOL      1.662121
    181 O27        -0.7870   -0.2160   -3.2150 oh        1 MOL     -0.891712
    182 H81        -0.0190    0.3150   -3.4410 ho        1 MOL      0.424397
    183 H82        -1.4180   -0.0330   -3.9070 ho        1 MOL      0.424397
@<TRIPOS>BOND
     1    1    2 1   
     2    1    4 1   
     3    1    5 1   
     4    1    6 1   
     5    2    3 2   
     6    2    7 1   
     7    7    8 1   
     8    7   15 1   
     9    8    9 1   
    10    8   11 1   
    11    8   16 1   
    12    9   10 2   
    13    9   19 1   
    14   11   12 1   
    15   11   17 1   
    16   11   18 1   
    17   12   13 1   
    18   12   14 1   
    19   19   20 1   
    20   19   27 1   
    21   20   21 1   
    22   20   23 1   
    23   20   28 1   
    24   21   22 2   
    25   21   38 1   
    26   23   24 1   
    27   23   25 1   
    28   23   29 1   
    29   24   26 1   
    30   24   30 1   
    31   24   31 1   
    32   25   32 1   
    33   25   33 1   
    34   25   34 1   
    35   26   35 1   
    36   26   36 1   
    37   26   37 1   
    38   38   39 1   
    39   38   46 1   
    40   39   40 1   
    41   39   42 1   
    42   39   47 1   
    43   40   41 2   
    44   40   50 1   
    45   42   43 1   
    46   42   48 1   
    47   42   49 1   
    48   43   44 1   
    49   43   45 1   
    50   50   51 1   
    51   50   54 1   
    52   51   52 1   
    53   51   55 1   
    54   51   56 1   
    55   52   53 2   
    56   52   57 1   
    57   57   58 1   
    58   57   65 1   
    59   58   59 1   
    60   58   61 1   
    61   58   66 1   
    62   59   60 2   
    63   59   69 1   
    64   61   62 1   
    65   61   67 1   
    66   61   68 1   
    67   62   63 1   
    68   62   64 1   
    69   69   70 1   
    70   69   73 1   
    71   70   71 1   
    72   70   74 1   
    73   70   75 1   
    74   71   72 2   
    75   71   76 1   
    76   76   77 1   
    77   76   85 1   
    78   77   78 1   
    79   77   80 1   
    80   77   86 1   
    81   78   79 2   
    82   78   93 1   
    83   80   81 1   
    84   80   87 1   
    85   80   88 1   
    86   81   82 1   
    87   81   89 1   
    88   81   90 1   
    89   82   83 1   
    90   82   84 2   
    91   83   91 1   
    92   83   92 1   
    93   93   94 1   
    94   93  100 1   
    95   94   95 1   
    96   94   97 1   
    97   94  101 1   
    98   95   96 2   
    99   95  109 1   
   100   97   98 1   
   101   97   99 1   
   102   97  102 1   
   103   98  103 1   
   104   98  104 1   
   105   98  105 1   
   106   99  106 1   
   107   99  107 1   
   108   99  108 1   
   109  109  110 1   
   110  109  117 1   
   111  110  111 1   
   112  110  113 1   
   113  110  118 1   
   114  111  112 2   
   115  111  123 1   
   116  113  114 1   
   117  113  119 1   
   118  113  120 1   
   119  114  115 1   
   120  114  116 2   
   121  115  121 1   
   122  115  122 1   
   123  123  124 1   
   124  123  135 1   
   125  124  125 1   
   126  124  127 1   
   127  124  136 1   
   128  125  126 2   
   129  125  144 1   
   130  127  128 1   
   131  127  137 1   
   132  127  138 1   
   133  128  129 ar  
   134  128  130 ar  
   135  129  131 ar  
   136  129  139 1   
   137  130  132 ar  
   138  130  140 1   
   139  131  133 ar  
   140  131  141 1   
   141  132  133 ar  
   142  132  142 1   
   143  133  134 1   
   144  134  143 1   
   145  144  145 1   
   146  144  153 1   
   147  145  146 1   
   148  145  148 1   
   149  145  154 1   
   150  146  147 2   
   151  146  159 1   
   152  148  149 1   
   153  148  155 1   
   154  148  156 1   
   155  149  150 1   
   156  149  157 1   
   157  149  158 1   
   158  150  151 1   
   159  150  152 1   
   160  159  160 1   
   161  159  168 1   
   162  160  161 1   
   163  160  163 1   
   164  160  169 1   
   165  161  162 2   
   166  161  174 1   
   167  163  164 1   
   168  163  170 1   
   169  163  171 1   
   170  164  165 1   
   171  164  172 1   
   172  164  173 1   
   173  165  166 1   
   174  165  167 1   
   175  174  175 1   
   176  174  179 1   
   177  175  176 1   
   178  175  177 1   
   179  175  178 1   
   180  181  182 1   
   181  181  183 1   
@<TRIPOS>SUBSTRUCTURE
     1 MOL         1 TEMP              0 ****  ****    0 ROOT
