@<TRIPOS>MOLECULE
MOL
  189   185     1     0     0
SMALL
resp


@<TRIPOS>ATOM
      1 C1          0.4970   -4.2460    5.8610 c3        1 MOL     -0.429940
      2 C2          1.2500   -3.7700    4.6040 c         1 MOL      0.755972
      3 O1          1.7280   -2.6350    4.6060 o         1 MOL     -0.585384
      4 H1          1.2150   -4.4960    6.6420 hc        1 MOL      0.108014
      5 H2         -0.1610   -3.4520    6.2140 hc        1 MOL      0.108014
      6 H3         -0.0960   -5.1280    5.6190 hc        1 MOL      0.108014
      7 N1          1.4100   -4.6770    3.5740 n         1 MOL     -0.588297
      8 C3          2.0310   -4.2260    2.3530 c3        1 MOL      0.045444
      9 C4          1.7910   -5.2010    1.1770 c         1 MOL      0.618420
     10 O2          2.0380   -6.3940    1.2940 o         1 MOL     -0.576862
     11 C5          3.5860   -4.0720    2.5370 c3        1 MOL     -0.367281
     12 C6          4.1750   -3.2200    1.4080 c         1 MOL      0.765169
     13 O3          3.4930   -2.4780    0.6430 o         1 MOL     -0.694475
     14 O4          5.4360   -3.1530    1.3730 o         1 MOL     -0.694475
     15 H4          1.0160   -5.6100    3.6450 hn        1 MOL      0.321196
     16 H5          1.6150   -3.2520    2.1000 h1        1 MOL      0.161076
     17 H6          3.9670   -5.0900    2.4440 hc        1 MOL      0.107893
     18 H7          3.8100   -3.5130    3.4380 hc        1 MOL      0.107893
     19 N2          1.5030   -4.6830    0.0010 n         1 MOL     -0.347452
     20 C7          1.2780   -5.4460   -1.2570 c3        1 MOL      0.028682
     21 C8          2.3630   -5.1100   -2.2820 c         1 MOL      0.603067
     22 O5          2.5020   -5.8450   -3.2250 o         1 MOL     -0.577244
     23 C9         -0.1550   -5.2920   -1.7890 c3        1 MOL      0.393355
     24 C10        -1.2400   -5.5930   -0.7760 c3        1 MOL     -0.141697
     25 C11        -0.4600   -6.0630   -3.0770 c3        1 MOL     -0.347388
     26 C12        -1.0480   -6.9920   -0.0750 c3        1 MOL     -0.136673
     27 H8          1.3540   -3.6850   -0.0080 hn        1 MOL      0.015204
     28 H9          1.5230   -6.4760   -1.0220 h1        1 MOL      0.038200
     29 H10        -0.2650   -4.2550   -2.0970 hc        1 MOL     -0.031770
     30 H11        -2.2210   -5.4550   -1.2380 hc        1 MOL      0.057087
     31 H12        -1.1850   -4.8960    0.0600 hc        1 MOL      0.057087
     32 H13        -1.5380   -5.9870   -3.2270 hc        1 MOL      0.067909
     33 H14        -0.0230   -5.5620   -3.9400 hc        1 MOL      0.067909
     34 H15        -0.1000   -7.0910   -3.0630 hc        1 MOL      0.067909
     35 H16        -1.0680   -7.8200   -0.7780 hc        1 MOL      0.016109
     36 H17        -0.1210   -6.9320    0.4890 hc        1 MOL      0.016109
     37 H18        -1.8710   -7.2660    0.5860 hc        1 MOL      0.016109
     38 N3          3.0990   -3.9880   -2.0910 n         1 MOL     -0.547648
     39 C13         3.9340   -3.5060   -3.2280 c3        1 MOL      0.073361
     40 C14         5.3380   -2.9750   -2.9780 c         1 MOL      0.364381
     41 O6          6.1020   -2.7830   -3.9240 o         1 MOL     -0.561912
     42 C15         3.1350   -2.4980   -3.9990 c3        1 MOL     -0.238968
     43 C16         2.6320   -1.4040   -3.0780 c         1 MOL      0.686008
     44 O7          3.4210   -0.9080   -2.1910 o         1 MOL     -0.660875
     45 O8          1.4750   -1.0110   -3.2190 o         1 MOL     -0.660875
     46 H19         2.7970   -3.4160   -1.3130 hn        1 MOL      0.411380
     47 H20         3.9880   -4.3830   -3.8710 h1        1 MOL      0.089848
     48 H21         2.2480   -2.9080   -4.4830 hc        1 MOL      0.077211
     49 H22         3.8150   -2.0530   -4.7280 hc        1 MOL      0.077211
     50 N4          5.6510   -2.6070   -1.7550 n         1 MOL      0.005506
     51 C17         6.9970   -2.0360   -1.3820 c3        1 MOL     -0.389955
     52 C18         7.2680   -0.4810   -1.5540 c         1 MOL      0.645026
     53 O9          8.3760   -0.0380   -1.3800 o         1 MOL     -0.621279
     54 H23         4.9500   -2.7280   -1.0350 hn        1 MOL      0.016283
     55 H24         7.6940   -2.5340   -2.0500 h1        1 MOL      0.145166
     56 H25         7.2270   -2.3250   -0.3580 h1        1 MOL      0.145166
     57 N5          6.1950    0.2170   -1.8770 n         1 MOL     -0.409148
     58 C19         6.3290    1.5520   -2.4940 c3        1 MOL      0.262815
     59 C20         6.6580    2.6930   -1.4600 c         1 MOL      0.319743
     60 O10         6.9650    3.8290   -1.8810 o         1 MOL     -0.553381
     61 C21         5.0610    2.0380   -3.2920 c3        1 MOL     -0.339615
     62 C22         3.7580    2.1220   -2.4010 c         1 MOL      0.927048
     63 O11         3.8400    1.8400   -1.1910 o         1 MOL     -0.774807
     64 O12         2.6760    2.6050   -2.8710 o         1 MOL     -0.774807
     65 H26         5.3350   -0.3000   -2.0520 hn        1 MOL      0.252183
     66 H27         7.1160    1.5950   -3.2490 h1        1 MOL      0.024739
     67 H28         4.8380    1.2620   -4.0180 hc        1 MOL      0.065728
     68 H29         5.2390    3.0150   -3.7490 hc        1 MOL      0.065728
     69 N6          6.6710    2.3670   -0.2110 n         1 MOL     -0.122731
     70 C23         7.0110    3.3290    0.8340 c3        1 MOL     -0.189284
     71 C24         5.8500    4.2400    1.2450 c         1 MOL      0.521684
     72 O13         6.0510    5.1590    2.0340 o         1 MOL     -0.580288
     73 H30         6.5360    1.4040    0.0450 hn        1 MOL      0.198449
     74 H31         7.8620    3.9520    0.5520 h1        1 MOL      0.101425
     75 H32         7.3580    2.7920    1.7040 h1        1 MOL      0.101425
     76 N7          4.6070    4.0310    0.7420 n         1 MOL     -0.233086
     77 C25         3.3260    4.5720    1.1940 c3        1 MOL      0.110696
     78 C26         2.3590    3.4570    1.6370 c         1 MOL      0.319601
     79 O14         2.3650    2.3450    1.1290 o         1 MOL     -0.472506
     80 C27         2.6140    5.3760    0.0700 c3        1 MOL     -0.003991
     81 C28         3.4640    6.5760   -0.2610 c3        1 MOL     -0.409124
     82 C29         2.6210    7.6420   -1.0430 c         1 MOL      0.733146
     83 N8          2.1480    7.4150   -2.2630 n         1 MOL     -0.874260
     84 O15         2.3830    8.7460   -0.5770 o         1 MOL     -0.598626
     85 H33         4.4420    3.4100   -0.0320 hn        1 MOL      0.156896
     86 H34         3.5950    5.2530    2.0090 h1        1 MOL      0.042123
     87 H35         1.6220    5.6750    0.4150 hc        1 MOL      0.062274
     88 H36         2.5210    4.8470   -0.8800 hc        1 MOL      0.062274
     89 H37         4.2610    6.2270   -0.9200 hc        1 MOL      0.130232
     90 H38         3.9360    7.0910    0.5720 hc        1 MOL      0.130232
     91 H39         2.3310    6.5140   -2.6620 hn        1 MOL      0.385994
     92 H40         1.5920    8.1010   -2.7630 hn        1 MOL      0.385994
     93 N9          1.4620    3.7980    2.6100 n         1 MOL     -0.435965
     94 C30         0.2750    2.9060    2.9120 c3        1 MOL      0.115993
     95 C31        -0.9220    3.3180    2.0610 c         1 MOL      0.426870
     96 O16        -1.5310    4.3840    2.3240 o         1 MOL     -0.581425
     97 C32        -0.2380    2.9010    4.3370 c3        1 MOL      0.232897
     98 C33        -1.2540    1.6910    4.5580 c3        1 MOL     -0.428971
     99 C34         0.6550    2.8260    5.6080 c3        1 MOL     -0.428971
    100 H41         1.5840    4.6960    3.0550 hn        1 MOL      0.278996
    101 H42         0.4970    1.8670    2.7040 h1        1 MOL      0.070584
    102 H43        -0.8350    3.8070    4.4730 hc        1 MOL     -0.011855
    103 H44        -1.8320    1.5440    3.6410 hc        1 MOL      0.102705
    104 H45        -0.7340    0.7920    4.9020 hc        1 MOL      0.102705
    105 H46        -2.0420    1.8460    5.2760 hc        1 MOL      0.102705
    106 H47         1.2700    1.9260    5.6510 hc        1 MOL      0.102705
    107 H48         1.2110    3.7590    5.6820 hc        1 MOL      0.102705
    108 H49         0.0360    2.6590    6.4770 hc        1 MOL      0.102705
    109 N10        -1.3410    2.4410    1.1500 n         1 MOL     -0.119078
    110 C35        -2.5630    2.5880    0.3740 c3        1 MOL      0.165729
    111 C36        -3.8940    2.2010    1.1270 c         1 MOL      0.200027
    112 O17        -3.8900    1.2750    1.8920 o         1 MOL     -0.167665
    113 C37        -2.2800    1.7740   -0.9500 c3        1 MOL     -0.751169
    114 C38        -3.4640    1.8930   -1.9470 c         1 MOL      0.888754
    115 N11        -3.6490    2.9850   -2.6150 n         1 MOL     -0.844512
    116 O18        -4.3800    1.0520   -2.0580 o         1 MOL     -0.590730
    117 H50        -0.8300    1.5810    1.0170 hn        1 MOL      0.138865
    118 H51        -2.7690    3.6180    0.0850 h1        1 MOL      0.011532
    119 H52        -2.1510    0.7440   -0.6060 hc        1 MOL      0.244690
    120 H53        -1.3910    2.0890   -1.5080 hc        1 MOL      0.244690
    121 H54        -2.9790    3.7360   -2.4770 hn        1 MOL      0.378328
    122 H55        -4.3440    3.0210   -3.3430 hn        1 MOL      0.378328
    123 N12        -5.0530    2.7340    0.7270 n         1 MOL     -0.318297
    124 C39        -6.4080    2.3220    1.1300 c3        1 MOL      0.131572
    125 C40        -6.6690    0.8080    1.0930 c         1 MOL      0.475226
    126 O19        -7.4090    0.3240    1.9070 o         1 MOL     -0.596578
    127 C41        -7.4800    3.1450    0.3240 c3        1 MOL     -0.275579
    128 C42        -7.6490    2.7750   -1.1430 ca        1 MOL      0.065192
    129 C43        -8.4510    1.7280   -1.5990 ca        1 MOL     -0.108519
    130 C44        -7.1340    3.7020   -2.0890 ca        1 MOL     -0.108519
    131 C45        -8.7170    1.5140   -2.9510 ca        1 MOL     -0.396639
    132 C46        -7.3250    3.4880   -3.4200 ca        1 MOL     -0.396639
    133 C47        -8.1290    2.3620   -3.8920 ca        1 MOL      0.502065
    134 O20        -8.4670    2.2250   -5.1820 oh        1 MOL     -0.562049
    135 H56        -5.0050    3.4920    0.0570 hn        1 MOL      0.241203
    136 H57        -6.5580    2.5750    2.1840 h1        1 MOL      0.036401
    137 H58        -7.2090    4.1650    0.5930 hc        1 MOL      0.083513
    138 H59        -8.4730    2.9990    0.7600 hc        1 MOL      0.083513
    139 H60        -8.7370    1.0310   -0.8210 ha        1 MOL      0.109627
    140 H61        -6.5330    4.5370   -1.7600 ha        1 MOL      0.109627
    141 H62        -9.3790    0.7080   -3.2200 ha        1 MOL      0.175633
    142 H63        -6.9460    4.1930   -4.1620 ha        1 MOL      0.175633
    143 H64        -9.0280    1.4460   -5.2460 ho        1 MOL      0.423331
    144 N13        -6.1330    0.1000    0.0790 n         1 MOL      0.070882
    145 C48        -6.3090   -1.3930    0.0150 c3        1 MOL     -0.090441
    146 C49        -5.3580   -2.2260    0.9650 c         1 MOL      0.321502
    147 O21        -5.6250   -3.3960    1.2990 o         1 MOL     -0.536283
    148 C50        -6.1340   -1.9990   -1.3800 c3        1 MOL     -0.055953
    149 C51        -7.2870   -1.5780   -2.2770 c3        1 MOL     -0.214494
    150 C52        -7.1410   -2.3120   -3.6140 c         1 MOL      0.684658
    151 O22        -7.7420   -3.4330   -3.6450 o         1 MOL     -0.736959
    152 O23        -6.7400   -1.7100   -4.6650 o         1 MOL     -0.736959
    153 H65        -5.4560    0.4810   -0.5630 hn        1 MOL      0.125909
    154 H66        -7.3230   -1.5900    0.3420 h1        1 MOL      0.079564
    155 H67        -6.1730   -3.0830   -1.3180 hc        1 MOL      0.054663
    156 H68        -5.1670   -1.7220   -1.7930 hc        1 MOL      0.054663
    157 H69        -7.2270   -0.4890   -2.3790 hc        1 MOL      0.053251
    158 H70        -8.2710   -1.7020   -1.8360 hc        1 MOL      0.053251
    159 N14        -4.3810   -1.5720    1.4660 n         1 MOL     -0.040862
    160 C53        -3.4880   -2.0860    2.4970 c3        1 MOL      0.013375
    161 C54        -3.8990   -1.5820    3.9040 c         1 MOL      0.392245
    162 O24        -3.8740   -2.4550    4.7340 o         1 MOL     -0.560004
    163 C55        -2.0410   -1.5350    2.3130 c3        1 MOL      0.131870
    164 C56        -1.5180   -1.6570    0.8690 c3        1 MOL      0.095687
    165 C57        -0.1250   -1.1670    0.6480 c         1 MOL      0.571458
    166 O25         0.1930   -0.0990    1.1330 o         1 MOL     -0.613787
    167 O26         0.6150   -1.8660   -0.1130 o         1 MOL     -0.613787
    168 H71        -4.3340   -0.5780    1.2620 hn        1 MOL      0.013909
    169 H72        -3.4190   -3.1750    2.4270 h1        1 MOL      0.068828
    170 H73        -1.3360   -2.1050    2.9130 hc        1 MOL     -0.051866
    171 H74        -2.0310   -0.5050    2.6560 hc        1 MOL     -0.051866
    172 H75        -2.2490   -1.1670    0.2350 hc        1 MOL     -0.075284
    173 H76        -1.5880   -2.7090    0.6150 hc        1 MOL     -0.075284
    174 N15        -4.4550   -0.3860    4.0600 n         1 MOL     -0.020438
    175 C58        -5.0330    0.0900    5.3510 c3        1 MOL     -0.214389
    176 H77        -5.9990    0.5580    5.1660 h1        1 MOL      0.079347
    177 H78        -5.1630   -0.7550    6.0260 h1        1 MOL      0.079347
    178 H79        -4.3590    0.8170    5.8060 h1        1 MOL      0.079347
    179 H80        -4.6120    0.1650    3.2280 hn        1 MOL      0.015364
    180 Ca1         2.6460   -0.0510    0.1520 Ca        1 MOL      1.701083
    181 O27         2.5250   -0.4530    3.0690 oh        1 MOL     -0.865979
    182 H81         2.3230   -1.1730    3.6710 ho        1 MOL      0.408631
    183 H82         3.2740   -0.0090    3.4800 ho        1 MOL      0.408631
    184 O28         5.2390   -0.3530    1.4200 oh        1 MOL     -0.865979
    185 H83         5.8840   -0.2570    2.1100 ho        1 MOL      0.408631
    186 H84         5.3270   -1.2660    1.1290 ho        1 MOL      0.408631
    187 O29         0.9590    1.0860   -1.6550 oh        1 MOL     -0.865979
    188 H85         1.3300    1.7810   -2.1880 ho        1 MOL      0.408631
    189 H86         1.0940    0.2820   -2.1580 ho        1 MOL      0.408631
@<TRIPOS>BOND
     1    1    2 1   
     2    1    4 1   
     3    1    5 1   
     4    1    6 1   
     5    2    3 2   
     6    2    7 1   
     7    7    8 1   
     8    7   15 1   
     9    8    9 1   
    10    8   11 1   
    11    8   16 1   
    12    9   10 2   
    13    9   19 1   
    14   11   12 1   
    15   11   17 1   
    16   11   18 1   
    17   12   13 1   
    18   12   14 1   
    19   19   20 1   
    20   19   27 1   
    21   20   21 1   
    22   20   23 1   
    23   20   28 1   
    24   21   22 2   
    25   21   38 1   
    26   23   24 1   
    27   23   25 1   
    28   23   29 1   
    29   24   26 1   
    30   24   30 1   
    31   24   31 1   
    32   25   32 1   
    33   25   33 1   
    34   25   34 1   
    35   26   35 1   
    36   26   36 1   
    37   26   37 1   
    38   38   39 1   
    39   38   46 1   
    40   39   40 1   
    41   39   42 1   
    42   39   47 1   
    43   40   41 2   
    44   40   50 1   
    45   42   43 1   
    46   42   48 1   
    47   42   49 1   
    48   43   44 1   
    49   43   45 1   
    50   50   51 1   
    51   50   54 1   
    52   51   52 1   
    53   51   55 1   
    54   51   56 1   
    55   52   53 2   
    56   52   57 1   
    57   57   58 1   
    58   57   65 1   
    59   58   59 1   
    60   58   61 1   
    61   58   66 1   
    62   59   60 2   
    63   59   69 1   
    64   61   62 1   
    65   61   67 1   
    66   61   68 1   
    67   62   63 1   
    68   62   64 1   
    69   69   70 1   
    70   69   73 1   
    71   70   71 1   
    72   70   74 1   
    73   70   75 1   
    74   71   72 2   
    75   71   76 1   
    76   76   77 1   
    77   76   85 1   
    78   77   78 1   
    79   77   80 1   
    80   77   86 1   
    81   78   79 2   
    82   78   93 1   
    83   80   81 1   
    84   80   87 1   
    85   80   88 1   
    86   81   82 1   
    87   81   89 1   
    88   81   90 1   
    89   82   83 1   
    90   82   84 2   
    91   83   91 1   
    92   83   92 1   
    93   93   94 1   
    94   93  100 1   
    95   94   95 1   
    96   94   97 1   
    97   94  101 1   
    98   95   96 2   
    99   95  109 1   
   100   97   98 1   
   101   97   99 1   
   102   97  102 1   
   103   98  103 1   
   104   98  104 1   
   105   98  105 1   
   106   99  106 1   
   107   99  107 1   
   108   99  108 1   
   109  109  110 1   
   110  109  117 1   
   111  110  111 1   
   112  110  113 1   
   113  110  118 1   
   114  111  112 2   
   115  111  123 1   
   116  113  114 1   
   117  113  119 1   
   118  113  120 1   
   119  114  115 1   
   120  114  116 2   
   121  115  121 1   
   122  115  122 1   
   123  123  124 1   
   124  123  135 1   
   125  124  125 1   
   126  124  127 1   
   127  124  136 1   
   128  125  126 2   
   129  125  144 1   
   130  127  128 1   
   131  127  137 1   
   132  127  138 1   
   133  128  129 ar  
   134  128  130 ar  
   135  129  131 ar  
   136  129  139 1   
   137  130  132 ar  
   138  130  140 1   
   139  131  133 ar  
   140  131  141 1   
   141  132  133 ar  
   142  132  142 1   
   143  133  134 1   
   144  134  143 1   
   145  144  145 1   
   146  144  153 1   
   147  145  146 1   
   148  145  148 1   
   149  145  154 1   
   150  146  147 2   
   151  146  159 1   
   152  148  149 1   
   153  148  155 1   
   154  148  156 1   
   155  149  150 1   
   156  149  157 1   
   157  149  158 1   
   158  150  151 1   
   159  150  152 1   
   160  159  160 1   
   161  159  168 1   
   162  160  161 1   
   163  160  163 1   
   164  160  169 1   
   165  161  162 2   
   166  161  174 1   
   167  163  164 1   
   168  163  170 1   
   169  163  171 1   
   170  164  165 1   
   171  164  172 1   
   172  164  173 1   
   173  165  166 1   
   174  165  167 1   
   175  174  175 1   
   176  174  179 1   
   177  175  176 1   
   178  175  177 1   
   179  175  178 1   
   180  181  182 1   
   181  181  183 1   
   182  184  185 1   
   183  184  186 1   
   184  187  188 1   
   185  187  189 1   
@<TRIPOS>SUBSTRUCTURE
     1 MOL         1 TEMP              0 ****  ****    0 ROOT
