@<TRIPOS>MOLECULE
MOL
  175   173     1     0     0
SMALL
resp


@<TRIPOS>ATOM
      1 C1          0.6870    4.2830    5.1870 c3        1 MOL     -0.479123
      2 C2         -0.0320    4.1090    3.8330 c         1 MOL      0.672333
      3 O1          0.6370    4.0370    2.8300 o         1 MOL     -0.525804
      4 H1          1.2320    5.2260    5.1890 hc        1 MOL      0.118966
      5 H2         -0.0490    4.2880    5.9910 hc        1 MOL      0.118966
      6 H3          1.3840    3.4600    5.3370 hc        1 MOL      0.118966
      7 N1         -1.3670    4.0530    3.8030 n         1 MOL     -0.616477
      8 C3         -2.1010    3.7370    2.6310 c3        1 MOL      0.200644
      9 C4         -2.1340    4.9400    1.6980 c         1 MOL      0.686916
     10 O2         -2.2860    6.0360    2.1230 o         1 MOL     -0.580180
     11 C5         -3.4860    3.1390    2.9760 c3        1 MOL     -0.540884
     12 C6         -4.0530    2.2510    1.9200 c         1 MOL      0.888778
     13 O3         -5.1520    1.6540    2.1310 o         1 MOL     -0.708172
     14 O4         -3.4420    1.9820    0.8340 o         1 MOL     -0.708172
     15 H4         -1.8050    4.2500    4.6850 hn        1 MOL      0.331045
     16 H5         -1.5680    2.9010    2.1700 h1        1 MOL      0.111228
     17 H6         -4.1700    3.9830    3.0840 hc        1 MOL      0.123219
     18 H7         -3.4370    2.4690    3.8260 hc        1 MOL      0.123219
     19 N2         -2.0450    4.5990    0.3730 n         1 MOL     -0.659829
     20 C7         -2.2270    5.4860   -0.7450 c3        1 MOL      0.395890
     21 C8         -3.3340    5.0860   -1.6980 c         1 MOL      0.437472
     22 O5         -3.6590    5.9110   -2.5540 o         1 MOL     -0.600899
     23 C9         -0.9340    5.5470   -1.5380 c3        1 MOL     -0.327534
     24 H8         -1.7470    3.6740    0.1170 hn        1 MOL      0.333117
     25 H9         -2.4080    6.4840   -0.3410 h1        1 MOL     -0.011071
     26 H10        -0.7130    4.6640   -2.1300 hc        1 MOL      0.081763
     27 H11        -1.0230    6.3460   -2.2840 hc        1 MOL      0.081763
     28 H12        -0.1510    5.7820   -0.8140 hc        1 MOL      0.081763
     29 N3         -3.8820    3.9290   -1.6770 n         1 MOL     -0.557492
     30 C10        -4.8200    3.3360   -2.6830 c3        1 MOL      0.306314
     31 C11        -5.9990    2.5220   -2.1560 c         1 MOL      0.387334
     32 O6         -6.8870    2.1030   -2.8640 o         1 MOL     -0.538955
     33 C12        -4.0260    2.7470   -3.7630 c3        1 MOL     -0.271653
     34 C13        -3.1840    1.5780   -3.2270 c         1 MOL      0.803021
     35 O7         -3.2290    1.1850   -2.0400 o         1 MOL     -0.751727
     36 O8         -2.4340    0.9460   -4.1040 o         1 MOL     -0.751727
     37 H13        -3.4620    3.2360   -1.0750 hn        1 MOL      0.362641
     38 H14        -5.3820    4.1090   -3.2250 h1        1 MOL      0.040579
     39 H15        -3.4150    3.5510   -4.1770 hc        1 MOL      0.061375
     40 H16        -4.6960    2.2990   -4.5020 hc        1 MOL      0.061375
     41 N4         -6.0200    2.3120   -0.8420 n         1 MOL     -0.204569
     42 C14        -7.0920    1.4530   -0.2790 c3        1 MOL     -0.313112
     43 C15        -7.2700    0.0190   -0.7000 c         1 MOL      0.570217
     44 O9         -8.2920   -0.5920   -0.4820 o         1 MOL     -0.601923
     45 H17        -5.1650    2.3480   -0.3040 hn        1 MOL      0.085476
     46 H18        -7.9390    2.0650   -0.5680 h1        1 MOL      0.141930
     47 H19        -7.0470    1.4730    0.8040 h1        1 MOL      0.141930
     48 N5         -6.2320   -0.5330   -1.3700 n         1 MOL     -0.182624
     49 C16        -6.2140   -1.8650   -1.9800 c3        1 MOL     -0.075731
     50 C17        -6.2970   -3.0810   -1.0150 c         1 MOL      0.480309
     51 O10        -6.6100   -4.2160   -1.3980 o         1 MOL     -0.552211
     52 C18        -5.1340   -1.8270   -3.1060 c3        1 MOL     -0.141208
     53 C19        -3.7180   -1.9160   -2.4860 c         1 MOL      0.598704
     54 N6         -2.7270   -1.9590   -3.3630 n         1 MOL     -0.698868
     55 O11        -3.5020   -1.7960   -1.2730 o         1 MOL     -0.541122
     56 H20        -5.5240    0.1310   -1.6270 hn        1 MOL      0.198658
     57 H21        -7.1550   -1.9960   -2.5090 h1        1 MOL      0.078872
     58 H22        -5.2360   -1.0000   -3.8110 hc        1 MOL      0.054077
     59 H23        -5.1690   -2.6700   -3.8010 hc        1 MOL      0.054077
     60 H24        -2.8400   -1.8010   -4.3580 hn        1 MOL      0.361723
     61 H25        -1.7840   -2.0880   -3.0200 hn        1 MOL      0.361723
     62 N7         -6.1830   -2.7620    0.2780 n         1 MOL     -0.133922
     63 C20        -6.2430   -3.7060    1.3990 c3        1 MOL     -0.346344
     64 C21        -5.0020   -4.6580    1.4570 c         1 MOL      0.604319
     65 O12        -5.0550   -5.7210    2.0270 o         1 MOL     -0.591700
     66 H26        -5.9470   -1.7980    0.5130 hn        1 MOL      0.203955
     67 H27        -7.0160   -4.4020    1.0720 h1        1 MOL      0.125786
     68 H28        -6.4100   -3.1200    2.3030 h1        1 MOL      0.125786
     69 N8         -3.8630   -4.1710    0.9410 n         1 MOL     -0.082205
     70 C22        -2.4590   -4.7150    1.0990 c3        1 MOL     -0.397109
     71 C23        -1.6300   -3.5390    1.5390 c         1 MOL      0.651906
     72 O13        -1.8200   -2.3900    1.0960 o         1 MOL     -0.644528
     73 C24        -1.8570   -5.3070   -0.1750 c3        1 MOL      0.577853
     74 C25        -2.4320   -6.7160   -0.3760 c3        1 MOL     -0.433854
     75 O14        -2.0970   -4.5140   -1.3920 oh        1 MOL     -0.638469
     76 H29        -3.9580   -3.2590    0.5130 hn        1 MOL      0.113336
     77 H30        -2.3970   -5.4100    1.9370 h1        1 MOL      0.122061
     78 H31        -0.7880   -5.4610   -0.0320 h1        1 MOL     -0.017594
     79 H32        -1.3540   -3.9590   -1.6420 ho        1 MOL      0.393522
     80 H33        -1.9830   -7.4550    0.2860 hc        1 MOL      0.100363
     81 H34        -3.5150   -6.6910   -0.3960 hc        1 MOL      0.100363
     82 H35        -2.0150   -7.0730   -1.3170 hc        1 MOL      0.100363
     83 N9         -0.5400   -3.8260    2.3370 n         1 MOL     -0.532538
     84 C26         0.6190   -2.9230    2.2650 c3        1 MOL      0.219719
     85 C27         1.3300   -3.1150    0.8950 c         1 MOL      0.357516
     86 O15         1.6290   -4.2500    0.4900 o         1 MOL     -0.570691
     87 C28         1.6360   -2.9810    3.4880 c3        1 MOL      0.038215
     88 C29         1.0590   -2.1830    4.7460 c3        1 MOL      0.159799
     89 C30         3.0450   -2.4260    3.1520 c3        1 MOL     -0.221509
     90 C31         1.4840   -2.7290    6.1320 c3        1 MOL     -0.244944
     91 H36        -0.4620   -4.7480    2.7520 hn        1 MOL      0.304029
     92 H37         0.2770   -1.8870    2.2240 h1        1 MOL     -0.051350
     93 H38         1.7170   -4.0300    3.7770 hc        1 MOL     -0.008434
     94 H39        -0.0310   -2.2400    4.6400 hc        1 MOL     -0.031398
     95 H40         1.3190   -1.1310    4.6620 hc        1 MOL     -0.031398
     96 H41         2.8070   -1.4910    2.6480 hc        1 MOL      0.053868
     97 H42         3.7500   -2.3310    3.9810 hc        1 MOL      0.053868
     98 H43         3.5650   -3.0740    2.4510 hc        1 MOL      0.053868
     99 H44         1.0490   -3.7320    6.2030 hc        1 MOL      0.052219
    100 H45         2.5650   -2.6290    6.1000 hc        1 MOL      0.052219
    101 H46         1.0890   -2.1500    6.9630 hc        1 MOL      0.052219
    102 N10         1.6800   -2.0560    0.1270 n         1 MOL     -0.125265
    103 C32         2.5380   -2.2060   -1.0660 c3        1 MOL      0.060858
    104 C33         3.9250   -1.6260   -0.8070 c         1 MOL      0.442373
    105 O16         4.1490   -0.9880    0.2470 o         1 MOL     -0.360682
    106 C34         1.9120   -1.4890   -2.1970 c3        1 MOL     -0.439032
    107 C35         0.4270   -1.8460   -2.2930 c         1 MOL      0.811199
    108 O17        -0.3400   -0.9470   -1.7550 o         1 MOL     -0.707441
    109 O18        -0.0420   -2.9340   -2.7690 o         1 MOL     -0.707441
    110 H47         1.5230   -1.1290    0.4800 hn        1 MOL      0.210664
    111 H48         2.7280   -3.2460   -1.3180 h1        1 MOL      0.102184
    112 H49         2.4280   -1.8140   -3.1070 hc        1 MOL      0.117820
    113 H50         1.9960   -0.4200   -2.0520 hc        1 MOL      0.117820
    114 N11         4.9230   -1.8230   -1.6300 n         1 MOL     -0.690207
    115 C36         6.3250   -1.4580   -1.3410 c3        1 MOL      0.422960
    116 C37         6.6160    0.0090   -1.0030 c         1 MOL      0.323525
    117 O19         7.3570    0.2830   -0.0690 o         1 MOL     -0.471028
    118 C38         7.2950   -2.0150   -2.4140 c3        1 MOL     -0.087085
    119 C39         8.7840   -1.6990   -2.2580 ca        1 MOL     -0.018147
    120 C40         9.3830   -1.9470   -0.9690 ca        1 MOL     -0.127593
    121 C41         9.5010   -1.1050   -3.3250 ca        1 MOL     -0.127593
    122 C42        10.7850   -1.6500   -0.7320 ca        1 MOL     -0.134725
    123 C43        10.8780   -0.8030   -3.0600 ca        1 MOL     -0.134725
    124 C44        11.4460   -1.0370   -1.8000 ca        1 MOL     -0.067346
    125 H51         4.7350   -2.3930   -2.4340 hn        1 MOL      0.341057
    126 H52         6.6540   -1.9890   -0.4510 h1        1 MOL      0.022390
    127 H53         6.9090   -1.5720   -3.3320 hc        1 MOL      0.027657
    128 H54         7.0770   -3.0800   -2.5070 hc        1 MOL      0.027657
    129 H55         8.7870   -2.4650   -0.2360 ha        1 MOL      0.118309
    130 H56         9.0880   -0.9790   -4.3110 ha        1 MOL      0.118309
    131 H57        11.2310   -1.9710    0.1970 ha        1 MOL      0.120366
    132 H58        11.4890   -0.3350   -3.8110 ha        1 MOL      0.120366
    133 H59        12.4760   -0.7390   -1.6820 ha        1 MOL      0.082768
    134 N12         6.0610    0.9990   -1.7460 n         1 MOL     -0.130808
    135 C45         6.1830    2.4340   -1.4720 c3        1 MOL      0.061700
    136 C46         5.7460    2.7750   -0.0910 c         1 MOL      0.170810
    137 O20         6.2070    3.7470    0.5280 o         1 MOL     -0.512293
    138 C47         5.3260    3.1970   -2.4610 c3        1 MOL      0.111028
    139 C48         5.3090    2.2820   -3.6900 c3        1 MOL     -0.114887
    140 C49         5.4580    0.8850   -3.1070 c3        1 MOL      0.035783
    141 H60         7.1980    2.7830   -1.6990 h1        1 MOL      0.057924
    142 H61         4.3150    3.3670   -2.0820 hc        1 MOL     -0.002322
    143 H62         5.8420    4.1390   -2.6700 hc        1 MOL     -0.002322
    144 H63         4.3620    2.4380   -4.2120 hc        1 MOL      0.044430
    145 H64         6.1620    2.5670   -4.3190 hc        1 MOL      0.044430
    146 H65         4.4890    0.3900   -3.0410 h1        1 MOL      0.013135
    147 H66         6.1180    0.3010   -3.7440 h1        1 MOL      0.013135
    148 N13         4.9760    1.9050    0.4950 n         1 MOL      0.097261
    149 C50         4.2360    2.0720    1.7120 c3        1 MOL     -0.037222
    150 C51         4.8950    1.2530    2.8720 c         1 MOL      0.401106
    151 O21         5.0000    1.7170    3.9840 o         1 MOL     -0.540178
    152 C52         2.7180    1.7140    1.6310 c3        1 MOL      0.016008
    153 C53         1.9070    2.1190    0.3210 c3        1 MOL     -0.175648
    154 C54         0.4680    1.5480    0.4030 c         1 MOL      0.594875
    155 O22         0.1770    0.5140    1.0540 o         1 MOL     -0.702436
    156 O23        -0.4680    2.0720   -0.2610 o         1 MOL     -0.702436
    157 H67         4.6260    1.1940   -0.1250 hn        1 MOL      0.106267
    158 H68         4.3350    3.1120    2.0430 h1        1 MOL      0.066092
    159 H69         2.1830    2.0520    2.5180 hc        1 MOL      0.031706
    160 H70         2.8250    0.6320    1.6950 hc        1 MOL      0.031706
    161 H71         2.4290    1.6030   -0.4820 hc        1 MOL      0.079876
    162 H72         1.8680    3.2080    0.3110 hc        1 MOL      0.079876
    163 N14         5.4560    0.0530    2.6440 n         1 MOL     -0.061682
    164 C55         6.4590   -0.6160    3.4870 c3        1 MOL     -0.298137
    165 H73         7.1930    0.1150    3.8280 h1        1 MOL      0.107593
    166 H74         5.9680   -1.0660    4.3500 h1        1 MOL      0.107593
    167 H75         6.9620   -1.3920    2.9090 h1        1 MOL      0.107593
    168 H76         5.2290   -0.3280    1.7340 hn        1 MOL      0.051948
    169 Ca1        -1.9720   -0.0600   -0.0760 Ca        1 MOL      1.688221
    170 O24        -1.9000    0.1950    2.7190 oh        1 MOL     -0.665727
    171 H77        -1.8410    0.4050    3.6450 ho        1 MOL      0.336820
    172 H78        -1.0160    0.3300    2.3910 ho        1 MOL      0.336820
    173 O25        -4.5150   -0.9380    1.5290 oh        1 MOL     -0.665727
    174 H79        -4.7210   -0.0370    1.7780 ho        1 MOL      0.336820
    175 H80        -4.4980   -1.4260    2.3450 ho        1 MOL      0.336820
@<TRIPOS>BOND
     1    1    2 1   
     2    1    4 1   
     3    1    5 1   
     4    1    6 1   
     5    2    3 2   
     6    2    7 1   
     7    7    8 1   
     8    7   15 1   
     9    8    9 1   
    10    8   11 1   
    11    8   16 1   
    12    9   10 2   
    13    9   19 1   
    14   11   12 1   
    15   11   17 1   
    16   11   18 1   
    17   12   13 1   
    18   12   14 1   
    19   19   20 1   
    20   19   24 1   
    21   20   21 1   
    22   20   23 1   
    23   20   25 1   
    24   21   22 2   
    25   21   29 1   
    26   23   26 1   
    27   23   27 1   
    28   23   28 1   
    29   29   30 1   
    30   29   37 1   
    31   30   31 1   
    32   30   33 1   
    33   30   38 1   
    34   31   32 2   
    35   31   41 1   
    36   33   34 1   
    37   33   39 1   
    38   33   40 1   
    39   34   35 1   
    40   34   36 1   
    41   41   42 1   
    42   41   45 1   
    43   42   43 1   
    44   42   46 1   
    45   42   47 1   
    46   43   44 2   
    47   43   48 1   
    48   48   49 1   
    49   48   56 1   
    50   49   50 1   
    51   49   52 1   
    52   49   57 1   
    53   50   51 2   
    54   50   62 1   
    55   52   53 1   
    56   52   58 1   
    57   52   59 1   
    58   53   54 1   
    59   53   55 2   
    60   54   60 1   
    61   54   61 1   
    62   62   63 1   
    63   62   66 1   
    64   63   64 1   
    65   63   67 1   
    66   63   68 1   
    67   64   65 2   
    68   64   69 1   
    69   69   70 1   
    70   69   76 1   
    71   70   71 1   
    72   70   73 1   
    73   70   77 1   
    74   71   72 2   
    75   71   83 1   
    76   73   74 1   
    77   73   75 1   
    78   73   78 1   
    79   74   80 1   
    80   74   81 1   
    81   74   82 1   
    82   75   79 1   
    83   83   84 1   
    84   83   91 1   
    85   84   85 1   
    86   84   87 1   
    87   84   92 1   
    88   85   86 2   
    89   85  102 1   
    90   87   88 1   
    91   87   89 1   
    92   87   93 1   
    93   88   90 1   
    94   88   94 1   
    95   88   95 1   
    96   89   96 1   
    97   89   97 1   
    98   89   98 1   
    99   90   99 1   
   100   90  100 1   
   101   90  101 1   
   102  102  103 1   
   103  102  110 1   
   104  103  104 1   
   105  103  106 1   
   106  103  111 1   
   107  104  105 2   
   108  104  114 1   
   109  106  107 1   
   110  106  112 1   
   111  106  113 1   
   112  107  108 1   
   113  107  109 1   
   114  114  115 1   
   115  114  125 1   
   116  115  116 1   
   117  115  118 1   
   118  115  126 1   
   119  116  117 2   
   120  116  134 1   
   121  118  119 1   
   122  118  127 1   
   123  118  128 1   
   124  119  120 ar  
   125  119  121 ar  
   126  120  122 ar  
   127  120  129 1   
   128  121  123 ar  
   129  121  130 1   
   130  122  124 ar  
   131  122  131 1   
   132  123  124 ar  
   133  123  132 1   
   134  124  133 1   
   135  134  135 1   
   136  134  140 1   
   137  135  136 1   
   138  135  138 1   
   139  135  141 1   
   140  136  137 2   
   141  136  148 1   
   142  138  139 1   
   143  138  142 1   
   144  138  143 1   
   145  139  140 1   
   146  139  144 1   
   147  139  145 1   
   148  140  146 1   
   149  140  147 1   
   150  148  149 1   
   151  148  157 1   
   152  149  150 1   
   153  149  152 1   
   154  149  158 1   
   155  150  151 2   
   156  150  163 1   
   157  152  153 1   
   158  152  159 1   
   159  152  160 1   
   160  153  154 1   
   161  153  161 1   
   162  153  162 1   
   163  154  155 1   
   164  154  156 1   
   165  163  164 1   
   166  163  168 1   
   167  164  165 1   
   168  164  166 1   
   169  164  167 1   
   170  170  171 1   
   171  170  172 1   
   172  173  174 1   
   173  173  175 1   
@<TRIPOS>SUBSTRUCTURE
     1 MOL         1 TEMP              0 ****  ****    0 ROOT
