@<TRIPOS>MOLECULE
MOL
  179   176     1     0     0
SMALL
resp


@<TRIPOS>ATOM
      1 C1         -0.2060    4.8250    4.6670 c3        1 MOL     -0.473594
      2 C2         -0.5260    4.2000    3.3310 c         1 MOL      0.731785
      3 O1          0.0070    4.6300    2.3430 o         1 MOL     -0.609412
      4 H1          0.7540    4.4500    5.0220 hc        1 MOL      0.115251
      5 H2         -0.1540    5.9080    4.5590 hc        1 MOL      0.115251
      6 H3         -0.9850    4.5680    5.3850 hc        1 MOL      0.115251
      7 N1         -1.4820    3.3130    3.2270 n         1 MOL     -0.509014
      8 C3         -2.0300    2.7600    1.9970 c3        1 MOL      0.029357
      9 C4         -2.9780    3.7400    1.2110 c         1 MOL      0.398466
     10 O2         -4.2160    3.6880    1.3010 o         1 MOL     -0.457991
     11 C5         -2.7640    1.5650    2.5030 c3        1 MOL     -0.021260
     12 C6         -3.3750    0.6680    1.4480 c         1 MOL      0.664702
     13 O3         -2.9560    0.7660    0.3060 o         1 MOL     -0.678665
     14 O4         -4.1940   -0.1820    1.7940 o         1 MOL     -0.678665
     15 H4         -1.9080    2.9330    4.0540 hn        1 MOL      0.288139
     16 H5         -1.1800    2.4840    1.3860 h1        1 MOL      0.115007
     17 H6         -3.5970    1.8400    3.1380 hc        1 MOL      0.003772
     18 H7         -2.0730    0.9800    3.1050 hc        1 MOL      0.003772
     19 N2         -2.4030    4.6560    0.4250 n         1 MOL     -0.284019
     20 C7         -3.1930    5.6400   -0.3920 c3        1 MOL      0.060331
     21 C8         -4.2870    5.1400   -1.3240 c         1 MOL      0.467089
     22 O5         -5.1570    5.9030   -1.5310 o         1 MOL     -0.545586
     23 C9         -2.2250    6.6140   -1.2450 c3        1 MOL     -0.143823
     24 C10        -1.1540    7.1820   -0.2710 c3        1 MOL     -0.020405
     25 C11        -1.8100    7.9590    0.8970 c3        1 MOL     -0.096402
     26 C12        -0.9820    9.0410    1.5710 c3        1 MOL      0.075001
     27 N3         -1.8330    9.6110    2.5830 n4        1 MOL     -0.323181
     28 H8         -1.4130    4.5460    0.2430 hn        1 MOL      0.320136
     29 H9         -3.7310    6.2810    0.3040 h1        1 MOL      0.016901
     30 H10        -2.8100    7.4830   -1.5640 hc        1 MOL      0.070147
     31 H11        -1.8060    6.0760   -2.0880 hc        1 MOL      0.070147
     32 H12        -0.5100    7.8390   -0.8670 hc        1 MOL      0.041862
     33 H13        -0.5080    6.3310   -0.0300 hc        1 MOL      0.041862
     34 H14        -2.1320    7.2770    1.6750 hc        1 MOL      0.050380
     35 H15        -2.6340    8.5410    0.4920 hc        1 MOL      0.050380
     36 H16        -0.6410    9.7850    0.8630 hx        1 MOL      0.071623
     37 H17        -0.1540    8.5000    2.0300 hx        1 MOL      0.071623
     38 H18        -2.5380   10.1840    2.1420 hn        1 MOL      0.318973
     39 H19        -2.2860    8.8600    3.0790 hn        1 MOL      0.318973
     40 H20        -1.2990   10.2180    3.1880 hn        1 MOL      0.318973
     41 N4         -4.1970    3.8740   -1.7540 n         1 MOL     -0.206564
     42 C13        -5.1540    3.3290   -2.6710 c3        1 MOL      0.135809
     43 C14        -6.2080    2.5080   -1.9270 c         1 MOL      0.341582
     44 O6         -7.2360    2.0870   -2.4930 o         1 MOL     -0.535109
     45 C15        -4.3300    2.4750   -3.6020 c3        1 MOL     -0.265485
     46 C16        -3.2500    1.4940   -3.0630 c         1 MOL      0.785989
     47 O7         -2.1650    1.8870   -2.5670 o         1 MOL     -0.733674
     48 O8         -3.4340    0.2820   -2.9640 o         1 MOL     -0.733674
     49 H21        -3.3660    3.3440   -1.5390 hn        1 MOL      0.089875
     50 H22        -5.6410    4.1260   -3.2440 h1        1 MOL      0.071398
     51 H23        -3.8240    3.1480   -4.2850 hc        1 MOL      0.058945
     52 H24        -5.1020    1.9260   -4.1490 hc        1 MOL      0.058945
     53 N5         -5.8380    2.1170   -0.6970 n         1 MOL      0.070074
     54 C17        -6.7520    1.5470    0.2670 c3        1 MOL     -0.292089
     55 C18        -6.7670   -0.0100    0.1850 c         1 MOL      0.578776
     56 O9         -7.6180   -0.6540    0.8340 o         1 MOL     -0.580623
     57 H25        -4.9200    2.3510   -0.3500 hn        1 MOL     -0.025669
     58 H26        -7.7180    2.0190    0.1550 h1        1 MOL      0.137248
     59 H27        -6.4000    1.8680    1.2450 h1        1 MOL      0.137248
     60 N6         -5.9460   -0.7030   -0.6370 n         1 MOL     -0.281198
     61 C19        -6.0990   -2.1550   -1.0380 c3        1 MOL     -0.054429
     62 C20        -5.6750   -3.2530   -0.1030 c         1 MOL      0.328492
     63 O10        -5.8290   -4.4500   -0.3150 o         1 MOL     -0.466624
     64 C21        -5.3040   -2.3510   -2.3680 c3        1 MOL     -0.187803
     65 C22        -3.8020   -2.7640   -2.1660 c         1 MOL      0.603315
     66 N7         -3.3950   -3.9390   -2.6800 n         1 MOL     -0.696065
     67 O11        -3.0380   -2.0910   -1.4380 o         1 MOL     -0.546002
     68 H28        -5.1250   -0.1730   -0.8810 hn        1 MOL      0.184035
     69 H29        -7.1400   -2.2880   -1.3370 h1        1 MOL      0.149462
     70 H30        -5.3560   -1.4620   -2.9960 hc        1 MOL      0.082182
     71 H31        -5.8090   -3.1570   -2.9030 hc        1 MOL      0.082182
     72 H32        -3.9640   -4.5080   -3.2840 hn        1 MOL      0.346193
     73 H33        -2.4230   -4.2010   -2.5860 hn        1 MOL      0.346193
     74 N8         -5.1590   -2.7930    1.0520 n         1 MOL     -0.162440
     75 C23        -4.7610   -3.6970    2.0920 c3        1 MOL     -0.134256
     76 C24        -3.2460   -4.0890    2.1970 c         1 MOL      0.497685
     77 O12        -2.8120   -4.9060    3.0520 o         1 MOL     -0.586891
     78 H34        -5.0460   -1.8020    1.1980 hn        1 MOL      0.273242
     79 H35        -5.3860   -4.5940    2.1050 h1        1 MOL      0.102576
     80 H36        -4.9440   -3.2630    3.0710 h1        1 MOL      0.102576
     81 N9         -2.4160   -3.6800    1.2380 n         1 MOL     -0.300869
     82 C25        -0.9560   -4.1010    1.1860 c3        1 MOL      0.389954
     83 C26        -0.0040   -2.9350    0.9780 c         1 MOL      0.377084
     84 O13        -0.4420   -1.8690    0.4570 o         1 MOL     -0.624717
     85 C27        -0.6430   -5.2580    0.2440 c3        1 MOL      0.026337
     86 C28        -1.5330   -6.4500    0.3740 ca        1 MOL      0.229732
     87 C29        -2.7770   -6.5080   -0.2970 ca        1 MOL     -0.429301
     88 C30        -1.0940   -7.4720    1.2320 ca        1 MOL     -0.429301
     89 C31        -3.6950   -7.5210    0.0930 ca        1 MOL     -0.019892
     90 C32        -2.0690   -8.5020    1.5420 ca        1 MOL     -0.019892
     91 C33        -3.3010   -8.5150    0.9540 ca        1 MOL      0.177724
     92 O14        -4.1670   -9.4990    1.3140 oh        1 MOL     -0.464286
     93 H37        -2.8330   -3.1260    0.5120 hn        1 MOL      0.148333
     94 H38        -0.6670   -4.4790    2.1680 h1        1 MOL     -0.023877
     95 H39         0.3880   -5.5190    0.4890 hc        1 MOL     -0.043056
     96 H40        -0.7020   -4.9670   -0.8090 hc        1 MOL     -0.043056
     97 H41        -3.1950   -5.6990   -0.8710 ha        1 MOL      0.200296
     98 H42        -0.1860   -7.3030    1.7880 ha        1 MOL      0.200296
     99 H43        -4.6950   -7.5510   -0.3210 ha        1 MOL      0.092024
    100 H44        -1.7050   -9.3310    2.1360 ha        1 MOL      0.092024
    101 H45        -3.7460  -10.1490    1.8640 ho        1 MOL      0.344141
    102 N10         1.2760   -3.1310    1.4460 n         1 MOL     -0.476903
    103 C34         2.2810   -2.0680    1.2900 c3        1 MOL     -0.139199
    104 C35         3.5800   -2.7550    0.9610 c         1 MOL      0.581721
    105 O15         4.0570   -3.6560    1.7570 o         1 MOL     -0.559852
    106 C36         2.4790   -1.1740    2.5280 c3        1 MOL      0.028356
    107 C37         1.2130   -0.3300    2.9390 c3        1 MOL     -0.010684
    108 C38         3.6600   -0.2430    2.4110 c3        1 MOL      0.029018
    109 C39         1.3020    0.8100    3.9450 c3        1 MOL     -0.093137
    110 H46         1.4400   -3.9240    2.0540 hn        1 MOL      0.331942
    111 H47         1.9150   -1.4750    0.4480 h1        1 MOL      0.277392
    112 H48         2.6670   -1.7890    3.4060 hc        1 MOL      0.012589
    113 H49         0.4260   -1.0220    3.2560 hc        1 MOL      0.039409
    114 H50         0.7040   -0.0040    2.0320 hc        1 MOL      0.039409
    115 H51         3.4360    0.4060    1.5570 hc        1 MOL     -0.011706
    116 H52         3.8440    0.3010    3.3340 hc        1 MOL     -0.011706
    117 H53         4.5940   -0.7820    2.2080 hc        1 MOL     -0.011706
    118 H54         2.0660    1.5310    3.6470 hc        1 MOL      0.023605
    119 H55         0.3500    1.3370    3.9720 hc        1 MOL      0.023605
    120 H56         1.5620    0.4680    4.9430 hc        1 MOL      0.023605
    121 N11         4.1740   -2.4490   -0.1610 n         1 MOL     -0.442330
    122 C40         5.5950   -2.8280   -0.5360 c3        1 MOL      0.047573
    123 C41         6.6650   -1.9350    0.0430 c         1 MOL      0.413575
    124 O16         6.4140   -0.7960    0.3890 o         1 MOL     -0.321060
    125 C42         5.7700   -2.8310   -2.0450 c3        1 MOL      0.114484
    126 O17         5.8440   -1.5800   -2.6260 oh        1 MOL     -0.422610
    127 H57         3.7750   -1.7540   -0.7700 hn        1 MOL      0.231651
    128 H58         5.7640   -3.8780   -0.3260 h1        1 MOL      0.077435
    129 H59         5.0560   -3.5070   -2.5300 h1        1 MOL      0.023294
    130 H60         6.6870   -3.3740   -2.2850 h1        1 MOL      0.023294
    131 H61         5.6880   -1.7760   -3.5470 ho        1 MOL      0.366067
    132 N12         7.8800   -2.4250    0.1660 n         1 MOL     -0.406752
    133 C43         8.9400   -1.6060    0.7030 c3        1 MOL      0.158653
    134 C44         9.3900   -0.4160   -0.2050 c         1 MOL      0.484058
    135 O18         9.9310    0.5540    0.3060 o         1 MOL     -0.515647
    136 C45        10.2280   -2.3780    1.0240 c3        1 MOL     -0.352708
    137 H62         8.0860   -3.3980   -0.0220 hn        1 MOL      0.273711
    138 H63         8.6310   -1.2290    1.6810 h1        1 MOL      0.078746
    139 H64        10.6500   -2.8650    0.1490 hc        1 MOL      0.106502
    140 H65        10.9330   -1.6470    1.4080 hc        1 MOL      0.106502
    141 H66        10.0400   -3.0870    1.8330 hc        1 MOL      0.106502
    142 N13         9.0330   -0.3100   -1.5010 n         1 MOL     -0.454103
    143 C46         8.9490    1.0070   -2.1420 c3        1 MOL      0.212271
    144 C47         7.7270    1.8070   -1.6540 c         1 MOL      0.397317
    145 O19         7.8900    2.8940   -1.1350 o         1 MOL     -0.506360
    146 C48         8.9560    0.7540   -3.6790 c3        1 MOL     -0.243045
    147 H67         8.5050   -1.1080   -1.8380 hn        1 MOL      0.223934
    148 H68         9.8310    1.6130   -1.9390 h1        1 MOL      0.089058
    149 H69         9.9240    0.3880   -3.9920 hc        1 MOL      0.063294
    150 H70         8.2510   -0.0010   -4.0100 hc        1 MOL      0.063294
    151 H71         8.7650    1.6730   -4.2420 hc        1 MOL      0.063294
    152 N14         6.4710    1.2740   -1.6620 n         1 MOL     -0.257682
    153 C49         5.2730    2.0310   -1.2330 c3        1 MOL      0.012427
    154 C50         5.4260    2.6090    0.2010 c         1 MOL      0.436445
    155 O20         4.9900    3.7610    0.4280 o         1 MOL     -0.589170
    156 C51         4.0150    1.1240   -1.3450 c3        1 MOL     -0.089026
    157 C52         2.7200    1.7980   -0.9070 c3        1 MOL     -0.049398
    158 C53         1.4340    0.9910   -0.9950 c         1 MOL      0.753789
    159 O21         1.3250   -0.0810   -1.6220 o         1 MOL     -0.819731
    160 O22         0.4040    1.4210   -0.5060 o         1 MOL     -0.819731
    161 H72         6.3320    0.3260   -1.9730 hn        1 MOL      0.079354
    162 H73         5.1100    2.9180   -1.8360 h1        1 MOL      0.092641
    163 H74         4.1080    0.2000   -0.7630 hc        1 MOL      0.021218
    164 H75         3.8900    0.8790   -2.3970 hc        1 MOL      0.021218
    165 H76         2.6920    2.7610   -1.4100 hc        1 MOL      0.039483
    166 H77         2.7960    2.0260    0.1560 hc        1 MOL      0.039483
    167 N15         6.1930    2.0040    1.0820 n         1 MOL      0.054547
    168 C54         6.4870    2.4740    2.4770 c3        1 MOL     -0.276838
    169 H78         7.4680    2.1100    2.7830 h1        1 MOL      0.106141
    170 H79         6.4810    3.5630    2.5030 h1        1 MOL      0.106141
    171 H80         5.7290    2.0890    3.1580 h1        1 MOL      0.106141
    172 H81         6.5170    1.0900    0.8040 hn        1 MOL      0.044662
    173 Ca1        -1.3190   -0.3020   -1.5140 Ca        1 MOL      1.794142
    174 O23        -0.8620   -0.3980   -4.2410 oh        1 MOL     -0.804160
    175 H82        -1.2830    0.0020   -5.0050 ho        1 MOL      0.397038
    176 H83         0.0710   -0.2100   -4.3560 ho        1 MOL      0.397038
    177 O24        -0.1990   -2.7910   -2.5670 oh        1 MOL     -0.804160
    178 H84         0.4590   -3.4740   -2.3910 ho        1 MOL      0.397038
    179 H85        -0.1280   -2.6320   -3.5010 ho        1 MOL      0.397038
@<TRIPOS>BOND
     1    1    2 1   
     2    1    4 1   
     3    1    5 1   
     4    1    6 1   
     5    2    3 2   
     6    2    7 1   
     7    7    8 1   
     8    7   15 1   
     9    8    9 1   
    10    8   11 1   
    11    8   16 1   
    12    9   10 2   
    13    9   19 1   
    14   11   12 1   
    15   11   17 1   
    16   11   18 1   
    17   12   13 1   
    18   12   14 1   
    19   19   20 1   
    20   19   28 1   
    21   20   21 1   
    22   20   23 1   
    23   20   29 1   
    24   21   22 2   
    25   21   41 1   
    26   23   24 1   
    27   23   30 1   
    28   23   31 1   
    29   24   25 1   
    30   24   32 1   
    31   24   33 1   
    32   25   26 1   
    33   25   34 1   
    34   25   35 1   
    35   26   27 1   
    36   26   36 1   
    37   26   37 1   
    38   27   38 1   
    39   27   39 1   
    40   27   40 1   
    41   41   42 1   
    42   41   49 1   
    43   42   43 1   
    44   42   45 1   
    45   42   50 1   
    46   43   44 2   
    47   43   53 1   
    48   45   46 1   
    49   45   51 1   
    50   45   52 1   
    51   46   47 1   
    52   46   48 1   
    53   53   54 1   
    54   53   57 1   
    55   54   55 1   
    56   54   58 1   
    57   54   59 1   
    58   55   56 2   
    59   55   60 1   
    60   60   61 1   
    61   60   68 1   
    62   61   62 1   
    63   61   64 1   
    64   61   69 1   
    65   62   63 2   
    66   62   74 1   
    67   64   65 1   
    68   64   70 1   
    69   64   71 1   
    70   65   66 1   
    71   65   67 2   
    72   66   72 1   
    73   66   73 1   
    74   74   75 1   
    75   74   78 1   
    76   75   76 1   
    77   75   79 1   
    78   75   80 1   
    79   76   77 2   
    80   76   81 1   
    81   81   82 1   
    82   81   93 1   
    83   82   83 1   
    84   82   85 1   
    85   82   94 1   
    86   83   84 2   
    87   83  102 1   
    88   85   86 1   
    89   85   95 1   
    90   85   96 1   
    91   86   87 ar  
    92   86   88 ar  
    93   87   89 ar  
    94   87   97 1   
    95   88   90 ar  
    96   88   98 1   
    97   89   91 ar  
    98   89   99 1   
    99   90   91 ar  
   100   90  100 1   
   101   91   92 1   
   102   92  101 1   
   103  102  103 1   
   104  102  110 1   
   105  103  104 1   
   106  103  106 1   
   107  103  111 1   
   108  104  105 2   
   109  104  121 1   
   110  106  107 1   
   111  106  108 1   
   112  106  112 1   
   113  107  109 1   
   114  107  113 1   
   115  107  114 1   
   116  108  115 1   
   117  108  116 1   
   118  108  117 1   
   119  109  118 1   
   120  109  119 1   
   121  109  120 1   
   122  121  122 1   
   123  121  127 1   
   124  122  123 1   
   125  122  125 1   
   126  122  128 1   
   127  123  124 2   
   128  123  132 1   
   129  125  126 1   
   130  125  129 1   
   131  125  130 1   
   132  126  131 1   
   133  132  133 1   
   134  132  137 1   
   135  133  134 1   
   136  133  136 1   
   137  133  138 1   
   138  134  135 2   
   139  134  142 1   
   140  136  139 1   
   141  136  140 1   
   142  136  141 1   
   143  142  143 1   
   144  142  147 1   
   145  143  144 1   
   146  143  146 1   
   147  143  148 1   
   148  144  145 2   
   149  144  152 1   
   150  146  149 1   
   151  146  150 1   
   152  146  151 1   
   153  152  153 1   
   154  152  161 1   
   155  153  154 1   
   156  153  156 1   
   157  153  162 1   
   158  154  155 2   
   159  154  167 1   
   160  156  157 1   
   161  156  163 1   
   162  156  164 1   
   163  157  158 1   
   164  157  165 1   
   165  157  166 1   
   166  158  159 1   
   167  158  160 1   
   168  167  168 1   
   169  167  172 1   
   170  168  169 1   
   171  168  170 1   
   172  168  171 1   
   173  174  175 1   
   174  174  176 1   
   175  177  178 1   
   176  177  179 1   
@<TRIPOS>SUBSTRUCTURE
     1 MOL         1 TEMP              0 ****  ****    0 ROOT
