@<TRIPOS>MOLECULE
MOL
  175   173     1     0     0
SMALL
resp


@<TRIPOS>ATOM
      1 C1          0.1230    3.7320    5.9840 c3        1 MOL     -0.328542
      2 C2         -0.4490    3.9680    4.5090 c         1 MOL      0.717627
      3 O1          0.2830    4.4290    3.6580 o         1 MOL     -0.572634
      4 H1         -0.2540    4.5110    6.6480 hc        1 MOL      0.076667
      5 H2         -0.2010    2.7560    6.3480 hc        1 MOL      0.076667
      6 H3          1.2110    3.7700    5.9630 hc        1 MOL      0.076667
      7 N1         -1.6750    3.6360    4.1900 n         1 MOL     -0.604505
      8 C3         -2.1240    3.3410    2.8260 c3        1 MOL      0.140957
      9 C4         -2.3540    4.6060    1.9430 c         1 MOL      0.625501
     10 O2         -2.8380    5.6120    2.4790 o         1 MOL     -0.572428
     11 C5         -3.5070    2.6660    3.0390 c3        1 MOL     -0.385229
     12 C6         -4.1540    2.5010    1.6340 c         1 MOL      0.694715
     13 O3         -5.2510    2.9310    1.4230 o         1 MOL     -0.626603
     14 O4         -3.5220    1.8950    0.7310 o         1 MOL     -0.626603
     15 H4         -2.3130    3.2260    4.8720 hn        1 MOL      0.307192
     16 H5         -1.4720    2.6480    2.3010 h1        1 MOL      0.060787
     17 H6         -4.0810    3.3490    3.6610 hc        1 MOL      0.076273
     18 H7         -3.4820    1.6610    3.4710 hc        1 MOL      0.076273
     19 N2         -2.1280    4.4840    0.6010 n         1 MOL     -0.587590
     20 C7         -2.2850    5.5650   -0.3170 c3        1 MOL      0.552509
     21 C8         -3.2510    5.2520   -1.5080 c         1 MOL      0.373539
     22 O5         -3.4300    6.1670   -2.2580 o         1 MOL     -0.582973
     23 C9         -0.9050    5.9660   -0.7670 c3        1 MOL     -0.243699
     24 H8         -1.5590    3.6800    0.3710 hn        1 MOL      0.253513
     25 H9         -2.7320    6.4800    0.0920 h1        1 MOL     -0.047478
     26 H10        -0.2400    5.1060   -0.8620 hc        1 MOL      0.039471
     27 H11        -1.0250    6.4480   -1.7360 hc        1 MOL      0.039471
     28 H12        -0.5140    6.7320   -0.0970 hc        1 MOL      0.039471
     29 N3         -3.7550    4.0620   -1.6420 n         1 MOL     -0.276314
     30 C10        -4.4730    3.6530   -2.8440 c3        1 MOL      0.238840
     31 C11        -5.7910    2.9000   -2.5640 c         1 MOL      0.251946
     32 O6         -6.6540    2.7860   -3.4380 o         1 MOL     -0.534071
     33 C12        -3.4670    2.9020   -3.7540 c3        1 MOL     -0.191490
     34 C13        -2.7950    1.6880   -3.0930 c         1 MOL      0.606165
     35 O7         -3.2850    1.0910   -2.0670 o         1 MOL     -0.660700
     36 O8         -1.7480    1.2780   -3.7010 o         1 MOL     -0.660700
     37 H13        -3.7400    3.4310   -0.8650 hn        1 MOL      0.180663
     38 H14        -4.7430    4.5170   -3.4390 h1        1 MOL      0.024957
     39 H15        -2.7110    3.6520   -3.9740 hc        1 MOL      0.052897
     40 H16        -4.0390    2.6900   -4.6660 hc        1 MOL      0.052897
     41 N4         -5.9120    2.2350   -1.3890 n         1 MOL      0.044181
     42 C14        -7.1040    1.6410   -0.8340 c3        1 MOL     -0.013633
     43 C15        -7.4000    0.2260   -1.3120 c         1 MOL      0.389177
     44 O9         -8.5850   -0.1010   -1.4640 o         1 MOL     -0.616361
     45 H17        -5.1290    2.3130   -0.7520 hn        1 MOL     -0.055863
     46 H18        -7.9260    2.3430   -0.8180 h1        1 MOL      0.056561
     47 H19        -6.9270    1.4930    0.2370 h1        1 MOL      0.056561
     48 N5         -6.4200   -0.5610   -1.5190 n         1 MOL      0.016020
     49 C16        -6.5210   -1.9330   -2.1510 c3        1 MOL     -0.105265
     50 C17        -6.5330   -3.0670   -1.0650 c         1 MOL      0.402302
     51 O10        -6.3750   -4.2670   -1.3820 o         1 MOL     -0.519056
     52 C18        -5.3400   -2.1980   -3.1500 c3        1 MOL     -0.088107
     53 C19        -3.9380   -1.9610   -2.5000 c         1 MOL      0.383037
     54 N6         -2.9080   -2.1210   -3.3320 n         1 MOL     -0.550156
     55 O11        -3.6890   -1.7780   -1.3450 o         1 MOL     -0.237981
     56 H20        -5.4930   -0.1910   -1.3600 hn        1 MOL      0.032372
     57 H21        -7.4580   -2.0880   -2.6870 h1        1 MOL      0.125548
     58 H22        -5.5790   -1.5050   -3.9510 hc        1 MOL      0.059945
     59 H23        -5.4420   -3.2180   -3.5200 hc        1 MOL      0.059945
     60 H24        -3.1010   -2.3950   -4.2900 hn        1 MOL      0.300254
     61 H25        -1.9850   -2.0140   -2.9460 hn        1 MOL      0.300254
     62 N7         -6.6510   -2.7010    0.2040 n         1 MOL     -0.199102
     63 C20        -6.4980   -3.5460    1.3400 c3        1 MOL     -0.305807
     64 C21        -5.1480   -4.2690    1.5860 c         1 MOL      0.530907
     65 O12        -5.1670   -5.2990    2.2450 o         1 MOL     -0.563376
     66 H26        -6.6510   -1.6950    0.2930 hn        1 MOL      0.193647
     67 H27        -7.2710   -4.3150    1.3120 h1        1 MOL      0.139910
     68 H28        -6.6440   -2.8690    2.1730 h1        1 MOL      0.139910
     69 N8         -4.0150   -3.8970    0.9370 n         1 MOL     -0.008082
     70 C22        -2.7240   -4.6050    1.0750 c3        1 MOL     -0.594369
     71 C23        -1.6110   -3.6290    1.1270 c         1 MOL      0.950950
     72 O13        -1.7520   -2.5370    0.5660 o         1 MOL     -0.720610
     73 C24        -2.4240   -5.6330   -0.0770 c3        1 MOL      0.580733
     74 C25        -3.2040   -6.8690    0.2620 c3        1 MOL     -0.639556
     75 O14        -2.8520   -5.2000   -1.2920 oh        1 MOL     -0.625770
     76 H29        -4.0390   -2.9780    0.5160 hn        1 MOL      0.022661
     77 H30        -2.6650   -5.1060    2.0420 h1        1 MOL      0.167336
     78 H31        -1.3390   -5.7460   -0.1680 h1        1 MOL      0.015793
     79 H32        -3.8110   -5.2110   -1.3260 ho        1 MOL      0.383911
     80 H33        -3.1050   -7.0840    1.3260 hc        1 MOL      0.162174
     81 H34        -4.2500   -6.6090    0.0830 hc        1 MOL      0.162174
     82 H35        -2.7900   -7.6750   -0.3410 hc        1 MOL      0.162174
     83 N9         -0.5120   -3.9890    1.8010 n         1 MOL     -0.678056
     84 C26         0.7040   -3.1500    1.9920 c3        1 MOL      0.160417
     85 C27         1.6850   -3.2380    0.8070 c         1 MOL      0.618399
     86 O15         2.1850   -4.3260    0.5900 o         1 MOL     -0.611069
     87 C28         1.5260   -3.5570    3.3130 c3        1 MOL      0.047600
     88 C29         0.6050   -3.7620    4.4730 c3        1 MOL      0.091651
     89 C30         2.6090   -2.4870    3.6450 c3        1 MOL     -0.180840
     90 C31        -0.1310   -2.4460    4.9700 c3        1 MOL     -0.474889
     91 H36        -0.4960   -4.8620    2.3100 hn        1 MOL      0.308371
     92 H37         0.3960   -2.1010    2.0930 h1        1 MOL      0.061418
     93 H38         1.9750   -4.5270    3.1150 hc        1 MOL     -0.013714
     94 H39         1.1620   -4.1150    5.3340 hc        1 MOL     -0.001637
     95 H40        -0.0830   -4.5760    4.2560 hc        1 MOL     -0.001637
     96 H41         2.9440   -2.6380    4.6760 hc        1 MOL      0.049693
     97 H42         3.4650   -2.5770    2.9800 hc        1 MOL      0.049693
     98 H43         2.2710   -1.4590    3.5030 hc        1 MOL      0.049693
     99 H44        -0.3390   -2.7460    5.9960 hc        1 MOL      0.114726
    100 H45         0.5380   -1.5920    5.0400 hc        1 MOL      0.114726
    101 H46        -0.9970   -2.3400    4.3160 hc        1 MOL      0.114726
    102 N10         1.9400   -2.1260    0.1150 n         1 MOL     -0.211550
    103 C32         2.7200   -2.0730   -1.0770 c3        1 MOL      0.020181
    104 C33         4.1400   -1.7010   -0.7380 c         1 MOL      0.548156
    105 O16         4.4420   -1.1430    0.3250 o         1 MOL     -0.420886
    106 C34         2.1250   -0.9820   -2.0350 c3        1 MOL     -0.314217
    107 C35         0.6390   -1.2250   -2.4470 c         1 MOL      0.831518
    108 O17        -0.3150   -0.8350   -1.8240 o         1 MOL     -0.709163
    109 O18         0.5360   -2.0170   -3.4120 o         1 MOL     -0.709163
    110 H47         1.5430   -1.2940    0.5000 hn        1 MOL     -0.001688
    111 H48         2.7200   -3.0390   -1.5930 h1        1 MOL      0.086741
    112 H49         2.7550   -0.8770   -2.9220 hc        1 MOL      0.081701
    113 H50         2.2520   -0.0220   -1.5440 hc        1 MOL      0.081701
    114 N11         5.0790   -1.8820   -1.6870 n         1 MOL     -0.827363
    115 C36         6.4960   -1.6170   -1.4150 c3        1 MOL      0.623526
    116 C37         6.7250   -0.1130   -1.0560 c         1 MOL      0.245879
    117 O19         7.5020    0.0990   -0.1310 o         1 MOL     -0.452508
    118 C38         7.5360   -2.0330   -2.4900 c3        1 MOL     -0.337339
    119 C39         8.9430   -1.6080   -2.2400 ca        1 MOL      0.191677
    120 C40         9.4830   -1.9470   -0.9840 ca        1 MOL     -0.213302
    121 C41         9.6940   -0.8710   -3.1640 ca        1 MOL     -0.213302
    122 C42        10.8120   -1.5310   -0.6980 ca        1 MOL     -0.081548
    123 C43        10.9680   -0.4190   -2.8200 ca        1 MOL     -0.081548
    124 C44        11.5660   -0.7950   -1.6350 ca        1 MOL     -0.146751
    125 H51         4.8440   -2.3760   -2.5330 hn        1 MOL      0.364796
    126 H52         6.6830   -2.1930   -0.5080 h1        1 MOL      0.024161
    127 H53         7.1080   -1.5530   -3.3760 hc        1 MOL      0.070868
    128 H54         7.4790   -3.1120   -2.5460 hc        1 MOL      0.070868
    129 H55         8.9050   -2.5490   -0.3100 ha        1 MOL      0.119772
    130 H56         9.2360   -0.7330   -4.1390 ha        1 MOL      0.119772
    131 H57        11.2830   -1.6340    0.2690 ha        1 MOL      0.103063
    132 H58        11.5890    0.1630   -3.4760 ha        1 MOL      0.103063
    133 H59        12.5870   -0.5140   -1.4100 ha        1 MOL      0.111360
    134 N12         6.2330    0.9320   -1.7480 n         1 MOL     -0.153954
    135 C45         6.4770    2.3330   -1.3800 c3        1 MOL      0.233630
    136 C46         5.8520    2.7170   -0.0640 c         1 MOL      0.164315
    137 O20         6.2110    3.6310    0.6760 o         1 MOL     -0.484991
    138 C47         5.8310    3.1130   -2.5800 c3        1 MOL     -0.182135
    139 C48         5.8980    2.0770   -3.7130 c3        1 MOL     -0.189554
    140 C49         5.4700    0.8000   -3.0140 c3        1 MOL      0.029837
    141 H60         7.5290    2.5950   -1.2620 h1        1 MOL      0.049712
    142 H61         4.7650    3.2710   -2.4090 hc        1 MOL      0.094859
    143 H62         6.4920    3.9820   -2.6220 hc        1 MOL      0.094859
    144 H63         5.1490    2.2510   -4.4900 hc        1 MOL      0.068015
    145 H64         6.9520    1.9620   -3.9630 hc        1 MOL      0.068015
    146 H65         4.4020    0.7890   -2.7940 h1        1 MOL      0.072050
    147 H66         5.7950    0.0020   -3.6790 h1        1 MOL      0.072050
    148 N13         4.9230    1.8670    0.4010 n         1 MOL      0.012687
    149 C50         4.4180    1.8410    1.8130 c3        1 MOL     -0.214189
    150 C51         5.2500    1.1690    2.8710 c         1 MOL      0.544760
    151 O21         5.1550    1.4780    4.0570 o         1 MOL     -0.574758
    152 C52         3.0090    1.2110    1.8340 c3        1 MOL     -0.062080
    153 C53         2.0140    2.0640    0.9900 c3        1 MOL     -0.065965
    154 C54         0.6410    1.4650    0.7390 c         1 MOL      0.670384
    155 O22         0.3470    0.3390    1.2290 o         1 MOL     -0.702520
    156 O23        -0.2440    2.0640    0.0860 o         1 MOL     -0.702520
    157 H67         4.6730    1.1000   -0.2040 hn        1 MOL      0.058625
    158 H68         4.4050    2.8780    2.1500 h1        1 MOL      0.150040
    159 H69         2.6030    1.2360    2.8450 hc        1 MOL      0.061833
    160 H70         2.9440    0.1830    1.4870 hc        1 MOL      0.061833
    161 H71         2.3630    2.2460   -0.0290 hc        1 MOL      0.051941
    162 H72         2.0380    3.0660    1.4190 hc        1 MOL      0.051941
    163 N14         6.0780    0.1980    2.4230 n         1 MOL     -0.086492
    164 C55         7.1160   -0.4130    3.2460 c3        1 MOL     -0.314860
    165 H73         7.0300   -0.0470    4.2690 h1        1 MOL      0.107673
    166 H74         6.9980   -1.4960    3.2360 h1        1 MOL      0.107673
    167 H75         8.0970   -0.1500    2.8490 h1        1 MOL      0.107673
    168 H76         5.9260   -0.1550    1.4820 hn        1 MOL      0.086111
    169 Ca1        -2.0160   -0.0200   -0.1400 Ca        1 MOL      1.658456
    170 O24        -1.8150   -0.1140    2.5790 oh        1 MOL     -0.714915
    171 H77        -0.8690    0.0080    2.6120 ho        1 MOL      0.364419
    172 H78        -2.0500   -0.4530    3.4370 ho        1 MOL      0.364419
    173 O25        -4.7480   -0.5180    1.2440 oh        1 MOL     -0.714915
    174 H79        -5.1960   -0.7330    2.0580 ho        1 MOL      0.364419
    175 H80        -4.7780    0.4340    1.1820 ho        1 MOL      0.364419
@<TRIPOS>BOND
     1    1    2 1   
     2    1    4 1   
     3    1    5 1   
     4    1    6 1   
     5    2    3 2   
     6    2    7 1   
     7    7    8 1   
     8    7   15 1   
     9    8    9 1   
    10    8   11 1   
    11    8   16 1   
    12    9   10 2   
    13    9   19 1   
    14   11   12 1   
    15   11   17 1   
    16   11   18 1   
    17   12   13 1   
    18   12   14 1   
    19   19   20 1   
    20   19   24 1   
    21   20   21 1   
    22   20   23 1   
    23   20   25 1   
    24   21   22 2   
    25   21   29 1   
    26   23   26 1   
    27   23   27 1   
    28   23   28 1   
    29   29   30 1   
    30   29   37 1   
    31   30   31 1   
    32   30   33 1   
    33   30   38 1   
    34   31   32 2   
    35   31   41 1   
    36   33   34 1   
    37   33   39 1   
    38   33   40 1   
    39   34   35 1   
    40   34   36 1   
    41   41   42 1   
    42   41   45 1   
    43   42   43 1   
    44   42   46 1   
    45   42   47 1   
    46   43   44 2   
    47   43   48 1   
    48   48   49 1   
    49   48   56 1   
    50   49   50 1   
    51   49   52 1   
    52   49   57 1   
    53   50   51 2   
    54   50   62 1   
    55   52   53 1   
    56   52   58 1   
    57   52   59 1   
    58   53   54 1   
    59   53   55 2   
    60   54   60 1   
    61   54   61 1   
    62   62   63 1   
    63   62   66 1   
    64   63   64 1   
    65   63   67 1   
    66   63   68 1   
    67   64   65 2   
    68   64   69 1   
    69   69   70 1   
    70   69   76 1   
    71   70   71 1   
    72   70   73 1   
    73   70   77 1   
    74   71   72 2   
    75   71   83 1   
    76   73   74 1   
    77   73   75 1   
    78   73   78 1   
    79   74   80 1   
    80   74   81 1   
    81   74   82 1   
    82   75   79 1   
    83   83   84 1   
    84   83   91 1   
    85   84   85 1   
    86   84   87 1   
    87   84   92 1   
    88   85   86 2   
    89   85  102 1   
    90   87   88 1   
    91   87   89 1   
    92   87   93 1   
    93   88   90 1   
    94   88   94 1   
    95   88   95 1   
    96   89   96 1   
    97   89   97 1   
    98   89   98 1   
    99   90   99 1   
   100   90  100 1   
   101   90  101 1   
   102  102  103 1   
   103  102  110 1   
   104  103  104 1   
   105  103  106 1   
   106  103  111 1   
   107  104  105 2   
   108  104  114 1   
   109  106  107 1   
   110  106  112 1   
   111  106  113 1   
   112  107  108 1   
   113  107  109 1   
   114  114  115 1   
   115  114  125 1   
   116  115  116 1   
   117  115  118 1   
   118  115  126 1   
   119  116  117 2   
   120  116  134 1   
   121  118  119 1   
   122  118  127 1   
   123  118  128 1   
   124  119  120 ar  
   125  119  121 ar  
   126  120  122 ar  
   127  120  129 1   
   128  121  123 ar  
   129  121  130 1   
   130  122  124 ar  
   131  122  131 1   
   132  123  124 ar  
   133  123  132 1   
   134  124  133 1   
   135  134  135 1   
   136  134  140 1   
   137  135  136 1   
   138  135  138 1   
   139  135  141 1   
   140  136  137 2   
   141  136  148 1   
   142  138  139 1   
   143  138  142 1   
   144  138  143 1   
   145  139  140 1   
   146  139  144 1   
   147  139  145 1   
   148  140  146 1   
   149  140  147 1   
   150  148  149 1   
   151  148  157 1   
   152  149  150 1   
   153  149  152 1   
   154  149  158 1   
   155  150  151 2   
   156  150  163 1   
   157  152  153 1   
   158  152  159 1   
   159  152  160 1   
   160  153  154 1   
   161  153  161 1   
   162  153  162 1   
   163  154  155 1   
   164  154  156 1   
   165  163  164 1   
   166  163  168 1   
   167  164  165 1   
   168  164  166 1   
   169  164  167 1   
   170  170  171 1   
   171  170  172 1   
   172  173  174 1   
   173  173  175 1   
@<TRIPOS>SUBSTRUCTURE
     1 MOL         1 TEMP              0 ****  ****    0 ROOT
