@<TRIPOS>MOLECULE
MOL
  179   176     1     0     0
SMALL
resp


@<TRIPOS>ATOM
      1 C1         -0.0660    4.6480    5.7240 c3        1 MOL     -0.317891
      2 C2         -0.0570    4.3990    4.1940 c         1 MOL      0.732584
      3 O1          0.7090    5.0240    3.5360 o         1 MOL     -0.570341
      4 H1         -0.6900    5.5130    5.9470 hc        1 MOL      0.073415
      5 H2         -0.4650    3.7700    6.2330 hc        1 MOL      0.073415
      6 H3          0.9520    4.8360    6.0670 hc        1 MOL      0.073415
      7 N1         -0.8820    3.4300    3.7580 n         1 MOL     -0.564277
      8 C3         -1.0370    3.0510    2.4390 c3        1 MOL     -0.134622
      9 C4         -1.4860    4.2160    1.5210 c         1 MOL      0.737648
     10 O2         -2.6370    4.5940    1.6280 o         1 MOL     -0.564767
     11 C5         -1.9950    1.8560    2.3910 c3        1 MOL     -0.055333
     12 C6         -2.0340    1.2600    0.9950 c         1 MOL      0.702233
     13 O3         -1.1140    1.5540    0.1620 o         1 MOL     -0.815875
     14 O4         -2.8390    0.4220    0.7150 o         1 MOL     -0.815875
     15 H4         -1.4610    2.9710    4.4410 hn        1 MOL      0.322741
     16 H5         -0.0560    2.7190    2.1050 h1        1 MOL      0.079582
     17 H6         -2.9900    2.2450    2.5880 hc        1 MOL      0.054589
     18 H7         -1.8070    1.1750    3.2230 hc        1 MOL      0.054589
     19 N2         -0.7800    4.6830    0.5020 n         1 MOL     -0.604761
     20 C7         -1.0980    5.9540   -0.2290 c3        1 MOL      0.067292
     21 C8         -2.3420    5.8780   -1.0880 c         1 MOL      0.380161
     22 O5         -3.0950    6.7900   -1.2160 o         1 MOL     -0.520839
     23 C9          0.0880    6.3390   -1.1580 c3        1 MOL     -0.111946
     24 C10         0.0590    7.7140   -1.8990 c3        1 MOL     -0.089951
     25 C11         0.0210    8.8870   -0.8750 c3        1 MOL     -0.212540
     26 C12         1.3210    9.0920   -0.1270 c3        1 MOL      0.157616
     27 N3          1.2210   10.0570    1.0550 n4        1 MOL     -0.462876
     28 H8         -0.0300    4.1240    0.1320 hn        1 MOL      0.356225
     29 H9         -1.2640    6.7430    0.4980 h1        1 MOL      0.104981
     30 H10         0.1020    5.5550   -1.9210 hc        1 MOL      0.056279
     31 H11         0.9670    6.2310   -0.5230 hc        1 MOL      0.056279
     32 H12        -0.7990    7.7340   -2.5820 hc        1 MOL      0.089758
     33 H13         0.8980    7.7820   -2.6010 hc        1 MOL      0.089758
     34 H14        -0.7080    8.7250   -0.0870 hc        1 MOL      0.085161
     35 H15        -0.2950    9.7680   -1.4300 hc        1 MOL      0.085161
     36 H16         2.0890    9.4080   -0.8230 hx        1 MOL      0.069045
     37 H17         1.7080    8.1440    0.2360 hx        1 MOL      0.069045
     38 H18         1.0030   11.0150    0.8010 hn        1 MOL      0.353671
     39 H19         0.4370    9.8010    1.6390 hn        1 MOL      0.353671
     40 H20         2.1130   10.0320    1.5180 hn        1 MOL      0.353671
     41 N4         -2.5420    4.6650   -1.6410 n         1 MOL     -0.225564
     42 C13        -3.7170    4.3040   -2.4510 c3        1 MOL      0.035631
     43 C14        -4.8210    3.7330   -1.6260 c         1 MOL      0.366721
     44 O6         -6.0070    3.7720   -2.0480 o         1 MOL     -0.540947
     45 C15        -3.3530    3.2910   -3.6550 c3        1 MOL     -0.303505
     46 C16        -2.8170    2.0730   -2.9630 c         1 MOL      0.825283
     47 O7         -3.5370    1.2630   -2.4040 o         1 MOL     -0.764967
     48 O8         -1.5730    1.9550   -2.9690 o         1 MOL     -0.764967
     49 H21        -1.8010    4.0000   -1.4920 hn        1 MOL      0.263501
     50 H22        -4.0110    5.1900   -3.0050 h1        1 MOL      0.108400
     51 H23        -2.5900    3.8480   -4.1880 hc        1 MOL      0.085279
     52 H24        -4.2640    3.0270   -4.2060 hc        1 MOL      0.085279
     53 N5         -4.4820    3.3650   -0.3750 n         1 MOL     -0.037670
     54 C17        -5.4200    2.9270    0.6510 c3        1 MOL     -0.235321
     55 C18        -6.0090    1.4580    0.4830 c         1 MOL      0.561909
     56 O9         -6.9210    1.1540    1.2800 o         1 MOL     -0.593973
     57 H25        -3.4820    3.3890   -0.2180 hn        1 MOL      0.144129
     58 H26        -6.3000    3.5620    0.7540 h1        1 MOL      0.116752
     59 H27        -4.9510    2.9610    1.6420 h1        1 MOL      0.116752
     60 N6         -5.6030    0.5660   -0.4300 n         1 MOL     -0.342787
     61 C19        -6.3790   -0.6650   -0.8050 c3        1 MOL      0.037150
     62 C20        -6.4140   -1.7790    0.2780 c         1 MOL      0.339693
     63 O10        -7.0810   -2.7930    0.1350 o         1 MOL     -0.505252
     64 C21        -5.9000   -1.1850   -2.1470 c3        1 MOL     -0.307871
     65 C22        -4.7310   -2.1580   -1.9400 c         1 MOL      0.708822
     66 N7         -4.6640   -3.1610   -2.7880 n         1 MOL     -0.645652
     67 O11        -3.7970   -1.9640   -1.1580 o         1 MOL     -0.680291
     68 H28        -4.7670    0.7850   -0.9560 hn        1 MOL      0.292968
     69 H29        -7.4170   -0.3350   -0.8870 h1        1 MOL      0.120580
     70 H30        -5.5810   -0.4110   -2.8420 hc        1 MOL      0.110049
     71 H31        -6.6910   -1.7770   -2.6070 hc        1 MOL      0.110049
     72 H32        -5.4520   -3.2920   -3.4040 hn        1 MOL      0.328480
     73 H33        -3.8570   -3.7700   -2.8200 hn        1 MOL      0.328480
     74 N8         -5.5880   -1.6240    1.2980 n         1 MOL     -0.028581
     75 C23        -5.4510   -2.5930    2.3920 c3        1 MOL     -0.326607
     76 C24        -4.2370   -3.4730    2.3410 c         1 MOL      0.811275
     77 O12        -4.1360   -4.3840    3.1220 o         1 MOL     -0.620478
     78 H34        -5.0180   -0.7870    1.2670 hn        1 MOL      0.180732
     79 H35        -6.3800   -3.1530    2.4570 h1        1 MOL      0.123175
     80 H36        -5.3220   -2.1370    3.3760 h1        1 MOL      0.123175
     81 N9         -3.2390   -3.1590    1.5060 n         1 MOL     -0.824641
     82 C25        -1.9940   -3.9780    1.3400 c3        1 MOL      0.619340
     83 C26        -0.8590   -2.9510    1.2290 c         1 MOL      0.159944
     84 O13        -1.0440   -1.8130    0.7450 o         1 MOL     -0.415633
     85 C27        -2.0120   -4.7740    0.0280 c3        1 MOL      0.004893
     86 C28        -2.9630   -5.9490    0.0270 ca        1 MOL     -0.128154
     87 C29        -4.3100   -5.7460   -0.3950 ca        1 MOL     -0.063880
     88 C30        -2.6100   -7.1470    0.5680 ca        1 MOL     -0.063880
     89 C31        -5.2640   -6.7940   -0.1710 ca        1 MOL     -0.335105
     90 C32        -3.4960   -8.2740    0.6750 ca        1 MOL     -0.335105
     91 C33        -4.7960   -8.0410    0.2650 ca        1 MOL      0.430117
     92 O14        -5.6930   -9.0260    0.3880 oh        1 MOL     -0.497700
     93 H37        -3.4560   -2.4340    0.8310 hn        1 MOL      0.473970
     94 H38        -1.7210   -4.6610    2.1410 h1        1 MOL     -0.045539
     95 H39        -0.9820   -5.1320   -0.0230 hc        1 MOL     -0.010231
     96 H40        -2.3200   -4.1160   -0.7880 hc        1 MOL     -0.010231
     97 H41        -4.5120   -4.7340   -0.7140 ha        1 MOL      0.090431
     98 H42        -1.5840   -7.1950    0.8850 ha        1 MOL      0.090431
     99 H43        -6.3160   -6.7080   -0.3800 ha        1 MOL      0.170298
    100 H44        -3.1820   -9.1650    1.1900 ha        1 MOL      0.170298
    101 H45        -5.3300   -9.7480    0.9110 ho        1 MOL      0.355538
    102 N10         0.2770   -3.2650    1.7530 n         1 MOL     -0.305293
    103 C34         1.5600   -2.6080    1.5310 c3        1 MOL      0.010808
    104 C35         2.5880   -3.5700    0.9350 c         1 MOL      0.603406
    105 O15         2.7710   -4.6110    1.4920 o         1 MOL     -0.556728
    106 C36         2.0610   -1.7610    2.7290 c3        1 MOL      0.092199
    107 C37         1.4260   -0.3740    2.6810 c3        1 MOL      0.102944
    108 C38         3.5620   -1.4820    2.7440 c3        1 MOL     -0.143100
    109 C39         1.3460    0.4420    4.0260 c3        1 MOL     -0.361312
    110 H46         0.2690   -4.1130    2.2960 hn        1 MOL      0.261617
    111 H47         1.4670   -1.9230    0.6870 h1        1 MOL     -0.120536
    112 H48         1.8040   -2.3130    3.6360 hc        1 MOL      0.004924
    113 H49         0.4090   -0.4790    2.3080 hc        1 MOL      0.052774
    114 H50         2.0550    0.2420    2.0490 hc        1 MOL      0.052774
    115 H51         3.7570   -0.7500    3.5270 hc        1 MOL      0.017810
    116 H52         4.1460   -2.3720    2.9530 hc        1 MOL      0.017810
    117 H53         3.9350   -1.1310    1.7790 hc        1 MOL      0.017810
    118 H54         0.6630   -0.0280    4.7380 hc        1 MOL      0.088758
    119 H55         2.3590    0.4810    4.4420 hc        1 MOL      0.088758
    120 H56         1.1430    1.4940    3.7920 hc        1 MOL      0.088758
    121 N11         3.2360   -3.1770   -0.1770 n         1 MOL     -0.305330
    122 C40         4.5210   -3.7580   -0.6180 c3        1 MOL     -0.066817
    123 C41         5.7390   -3.1240    0.0150 c         1 MOL      0.711514
    124 O16         5.6530   -1.9990    0.5260 o         1 MOL     -0.512900
    125 C42         4.6900   -3.8660   -2.1330 c3        1 MOL      0.007902
    126 O17         4.9320   -2.6060   -2.7660 oh        1 MOL     -0.614407
    127 H57         2.8290   -2.4040   -0.6890 hn        1 MOL      0.149003
    128 H58         4.5580   -4.7830   -0.2410 h1        1 MOL      0.040919
    129 H59         3.8180   -4.3290   -2.5910 h1        1 MOL      0.085593
    130 H60         5.5400   -4.5190   -2.3510 h1        1 MOL      0.085593
    131 H61         4.1440   -2.0760   -2.9320 ho        1 MOL      0.429388
    132 N12         6.8920   -3.7500   -0.1180 n         1 MOL     -0.644214
    133 C43         8.1560   -3.0980    0.3780 c3        1 MOL      0.249230
    134 C44         8.4520   -1.7460   -0.1570 c         1 MOL      0.400778
    135 O18         8.9770   -0.9060    0.5560 o         1 MOL     -0.522982
    136 C45         9.3040   -4.0550    0.0530 c3        1 MOL     -0.417753
    137 H62         7.0550   -4.4940   -0.7820 hn        1 MOL      0.355223
    138 H63         8.1730   -3.1250    1.4700 h1        1 MOL      0.080493
    139 H64         9.1790   -4.9270    0.6950 hc        1 MOL      0.117026
    140 H65         9.1750   -4.4890   -0.9340 hc        1 MOL      0.117026
    141 H66        10.2490   -3.5620    0.2760 hc        1 MOL      0.117026
    142 N13         8.1050   -1.4450   -1.4030 n         1 MOL     -0.354094
    143 C46         8.2930   -0.0530   -2.0210 c3        1 MOL      0.148794
    144 C47         7.3010    0.9520   -1.4380 c         1 MOL      0.317126
    145 O19         7.5900    2.1150   -1.3100 o         1 MOL     -0.517393
    146 C48         8.2310   -0.2700   -3.5730 c3        1 MOL     -0.123024
    147 H67         7.8180   -2.2440   -1.9510 hn        1 MOL      0.255363
    148 H68         9.2980    0.2830   -1.7970 h1        1 MOL      0.074778
    149 H69         8.4890    0.5980   -4.1650 hc        1 MOL      0.035641
    150 H70         8.9410   -1.0710   -3.7980 hc        1 MOL      0.035641
    151 H71         7.1910   -0.5570   -3.7360 hc        1 MOL      0.035641
    152 N14         6.0830    0.5630   -1.1260 n         1 MOL     -0.028628
    153 C49         5.0490    1.4020   -0.4750 c3        1 MOL     -0.196167
    154 C50         5.3810    1.6310    1.0330 c         1 MOL      0.408004
    155 O20         5.0560    2.6770    1.5860 o         1 MOL     -0.558786
    156 C51         3.7090    0.6480   -0.6720 c3        1 MOL      0.128375
    157 C52         3.1500    0.5350   -2.0660 c3        1 MOL     -0.170931
    158 C53         1.9930   -0.4660   -2.1790 c         1 MOL      0.754803
    159 O21         0.8180   -0.0950   -1.9580 o         1 MOL     -0.685063
    160 O22         2.3460   -1.6500   -2.4090 o         1 MOL     -0.685063
    161 H72         5.7720   -0.3800   -1.2950 hn        1 MOL      0.126308
    162 H73         5.0170    2.3480   -1.0220 h1        1 MOL      0.123539
    163 H74         2.9910    1.2440   -0.1080 hc        1 MOL      0.031148
    164 H75         3.8780   -0.3530   -0.2700 hc        1 MOL      0.031148
    165 H76         3.9250    0.1630   -2.7380 hc        1 MOL      0.010240
    166 H77         2.8240    1.5160   -2.4210 hc        1 MOL      0.010240
    167 N15         6.1510    0.8160    1.7010 n         1 MOL      0.051563
    168 C54         6.5650    1.1230    3.0790 c3        1 MOL     -0.212861
    169 H78         5.9550    1.9370    3.4690 h1        1 MOL      0.085027
    170 H79         6.4320    0.2400    3.7040 h1        1 MOL      0.085027
    171 H80         7.6140    1.4190    3.0870 h1        1 MOL      0.085027
    172 H81         6.5500   -0.0080    1.2950 hn        1 MOL      0.087526
    173 Ca1        -1.6420   -0.3540   -1.4930 Ca        1 MOL      1.747047
    174 O23        -0.2230   -2.7770   -2.0580 oh        1 MOL     -0.813973
    175 H82        -0.2540   -3.7280   -2.1550 ho        1 MOL      0.397593
    176 H83         0.6920   -2.5920   -1.8300 ho        1 MOL      0.397593
    177 O24        -2.3360   -1.3200   -3.8310 oh        1 MOL     -0.813973
    178 H84        -1.5740   -1.5570   -4.3490 ho        1 MOL      0.397593
    179 H85        -3.0750   -1.4660   -4.4290 ho        1 MOL      0.397593
@<TRIPOS>BOND
     1    1    2 1   
     2    1    4 1   
     3    1    5 1   
     4    1    6 1   
     5    2    3 2   
     6    2    7 1   
     7    7    8 1   
     8    7   15 1   
     9    8    9 1   
    10    8   11 1   
    11    8   16 1   
    12    9   10 2   
    13    9   19 1   
    14   11   12 1   
    15   11   17 1   
    16   11   18 1   
    17   12   13 1   
    18   12   14 1   
    19   19   20 1   
    20   19   28 1   
    21   20   21 1   
    22   20   23 1   
    23   20   29 1   
    24   21   22 2   
    25   21   41 1   
    26   23   24 1   
    27   23   30 1   
    28   23   31 1   
    29   24   25 1   
    30   24   32 1   
    31   24   33 1   
    32   25   26 1   
    33   25   34 1   
    34   25   35 1   
    35   26   27 1   
    36   26   36 1   
    37   26   37 1   
    38   27   38 1   
    39   27   39 1   
    40   27   40 1   
    41   41   42 1   
    42   41   49 1   
    43   42   43 1   
    44   42   45 1   
    45   42   50 1   
    46   43   44 2   
    47   43   53 1   
    48   45   46 1   
    49   45   51 1   
    50   45   52 1   
    51   46   47 1   
    52   46   48 1   
    53   53   54 1   
    54   53   57 1   
    55   54   55 1   
    56   54   58 1   
    57   54   59 1   
    58   55   56 2   
    59   55   60 1   
    60   60   61 1   
    61   60   68 1   
    62   61   62 1   
    63   61   64 1   
    64   61   69 1   
    65   62   63 2   
    66   62   74 1   
    67   64   65 1   
    68   64   70 1   
    69   64   71 1   
    70   65   66 1   
    71   65   67 2   
    72   66   72 1   
    73   66   73 1   
    74   74   75 1   
    75   74   78 1   
    76   75   76 1   
    77   75   79 1   
    78   75   80 1   
    79   76   77 2   
    80   76   81 1   
    81   81   82 1   
    82   81   93 1   
    83   82   83 1   
    84   82   85 1   
    85   82   94 1   
    86   83   84 2   
    87   83  102 1   
    88   85   86 1   
    89   85   95 1   
    90   85   96 1   
    91   86   87 ar  
    92   86   88 ar  
    93   87   89 ar  
    94   87   97 1   
    95   88   90 ar  
    96   88   98 1   
    97   89   91 ar  
    98   89   99 1   
    99   90   91 ar  
   100   90  100 1   
   101   91   92 1   
   102   92  101 1   
   103  102  103 1   
   104  102  110 1   
   105  103  104 1   
   106  103  106 1   
   107  103  111 1   
   108  104  105 2   
   109  104  121 1   
   110  106  107 1   
   111  106  108 1   
   112  106  112 1   
   113  107  109 1   
   114  107  113 1   
   115  107  114 1   
   116  108  115 1   
   117  108  116 1   
   118  108  117 1   
   119  109  118 1   
   120  109  119 1   
   121  109  120 1   
   122  121  122 1   
   123  121  127 1   
   124  122  123 1   
   125  122  125 1   
   126  122  128 1   
   127  123  124 2   
   128  123  132 1   
   129  125  126 1   
   130  125  129 1   
   131  125  130 1   
   132  126  131 1   
   133  132  133 1   
   134  132  137 1   
   135  133  134 1   
   136  133  136 1   
   137  133  138 1   
   138  134  135 2   
   139  134  142 1   
   140  136  139 1   
   141  136  140 1   
   142  136  141 1   
   143  142  143 1   
   144  142  147 1   
   145  143  144 1   
   146  143  146 1   
   147  143  148 1   
   148  144  145 2   
   149  144  152 1   
   150  146  149 1   
   151  146  150 1   
   152  146  151 1   
   153  152  153 1   
   154  152  161 1   
   155  153  154 1   
   156  153  156 1   
   157  153  162 1   
   158  154  155 2   
   159  154  167 1   
   160  156  157 1   
   161  156  163 1   
   162  156  164 1   
   163  157  158 1   
   164  157  165 1   
   165  157  166 1   
   166  158  159 1   
   167  158  160 1   
   168  167  168 1   
   169  167  172 1   
   170  168  169 1   
   171  168  170 1   
   172  168  171 1   
   173  174  175 1   
   174  174  176 1   
   175  177  178 1   
   176  177  179 1   
@<TRIPOS>SUBSTRUCTURE
     1 MOL         1 TEMP              0 ****  ****    0 ROOT
