@<TRIPOS>MOLECULE
MOL
  179   176     1     0     0
SMALL
resp


@<TRIPOS>ATOM
      1 C1          1.1020    4.2220    4.3110 c3        1 MOL     -0.201266
      2 C2          0.6110    3.4520    3.0930 c         1 MOL      0.651663
      3 O1          1.4310    3.1480    2.2140 o         1 MOL     -0.569580
      4 H1          0.9790    5.2910    4.1380 hc        1 MOL      0.046716
      5 H2          0.5220    3.9260    5.1850 hc        1 MOL      0.046716
      6 H3          2.1550    4.0000    4.4810 hc        1 MOL      0.046716
      7 N1         -0.7060    3.0910    3.0040 n         1 MOL     -0.734995
      8 C3         -1.4740    2.5680    1.8300 c3        1 MOL      0.325472
      9 C4         -2.1210    3.8300    1.2670 c         1 MOL      0.478298
     10 O2         -3.3310    4.0390    1.3030 o         1 MOL     -0.456156
     11 C5         -2.4690    1.5440    2.3400 c3        1 MOL     -0.351514
     12 C6         -3.4940    1.0650    1.3130 c         1 MOL      0.737170
     13 O3         -3.1870    1.1590    0.0560 o         1 MOL     -0.627782
     14 O4         -4.5480    0.4400    1.6370 o         1 MOL     -0.627782
     15 H4         -1.2510    3.1160    3.8480 hn        1 MOL      0.370705
     16 H5         -0.8170    2.0830    1.1100 h1        1 MOL     -0.098345
     17 H6         -3.0070    1.9570    3.1890 hc        1 MOL      0.075347
     18 H7         -1.8500    0.7010    2.6450 hc        1 MOL      0.075347
     19 N2         -1.2640    4.6930    0.6800 n         1 MOL     -0.396314
     20 C7         -1.6450    6.0440    0.2620 c3        1 MOL     -0.032305
     21 C8         -2.7070    5.9740   -0.9170 c         1 MOL      0.404835
     22 O5         -3.5600    6.8590   -0.8900 o         1 MOL     -0.522003
     23 C9         -0.3060    6.7910   -0.1180 c3        1 MOL     -0.226793
     24 C10         0.5340    7.1860    1.1480 c3        1 MOL      0.139404
     25 C11         1.9680    7.7000    0.7540 c3        1 MOL     -0.396248
     26 C12         2.8080    7.9810    2.0710 c3        1 MOL     -0.006323
     27 N3          2.3510    9.1470    2.8310 n4        1 MOL     -0.288797
     28 H8         -0.2960    4.4130    0.5970 hn        1 MOL      0.356818
     29 H9         -2.2160    6.5850    1.0100 h1        1 MOL      0.112049
     30 H10        -0.4910    7.6930   -0.6950 hc        1 MOL      0.100222
     31 H11         0.3480    6.1740   -0.7370 hc        1 MOL      0.100222
     32 H12         0.6070    6.3020    1.7770 hc        1 MOL     -0.003706
     33 H13        -0.1030    7.8420    1.7330 hc        1 MOL     -0.003706
     34 H14         2.0490    8.6210    0.1740 hc        1 MOL      0.166559
     35 H15         2.4700    6.8940    0.2070 hc        1 MOL      0.166559
     36 H16         3.8690    8.1060    1.8610 hx        1 MOL      0.123048
     37 H17         2.6360    7.0930    2.6750 hx        1 MOL      0.123048
     38 H18         2.9990    9.4640    3.5480 hn        1 MOL      0.308333
     39 H19         2.1150    9.8930    2.1990 hn        1 MOL      0.308333
     40 H20         1.4700    8.9530    3.2880 hn        1 MOL      0.308333
     41 N4         -2.7670    4.9200   -1.6900 n         1 MOL     -0.212597
     42 C13        -3.8260    4.5820   -2.5840 c3        1 MOL      0.124588
     43 C14        -5.1830    4.0620   -1.9570 c         1 MOL      0.419892
     44 O6         -6.2380    4.6820   -2.3010 o         1 MOL     -0.564193
     45 C15        -3.3010    3.5930   -3.6070 c3        1 MOL     -0.290908
     46 C16        -2.6750    2.2660   -3.0600 c         1 MOL      0.755448
     47 O7         -1.5730    2.3510   -2.4490 o         1 MOL     -0.717005
     48 O8         -3.2290    1.1470   -3.0770 o         1 MOL     -0.717005
     49 H21        -2.0270    4.2380   -1.6420 hn        1 MOL      0.144972
     50 H22        -4.1600    5.4780   -3.0950 h1        1 MOL      0.055055
     51 H23        -2.5880    4.1360   -4.2210 hc        1 MOL      0.066604
     52 H24        -4.0960    3.2120   -4.2540 hc        1 MOL      0.066604
     53 N5         -5.0920    3.0990   -1.0950 n         1 MOL     -0.003185
     54 C17        -6.2140    2.6090   -0.2660 c3        1 MOL     -0.193244
     55 C18        -6.7950    1.2370   -0.5750 c         1 MOL      0.578729
     56 O9         -7.8880    0.8690   -0.1770 o         1 MOL     -0.555044
     57 H25        -4.2200    2.7150   -0.7690 hn        1 MOL      0.084195
     58 H26        -7.0300    3.3070   -0.4320 h1        1 MOL      0.094602
     59 H27        -5.8160    2.6000    0.7510 h1        1 MOL      0.094602
     60 N6         -5.9490    0.3620   -1.2360 n         1 MOL     -0.227274
     61 C19        -6.3210   -1.0330   -1.4830 c3        1 MOL     -0.165743
     62 C20        -6.3690   -1.9720   -0.2520 c         1 MOL      0.464597
     63 O10        -6.3860   -3.1740   -0.4360 o         1 MOL     -0.486234
     64 C21        -5.4460   -1.5170   -2.6970 c3        1 MOL     -0.216260
     65 C22        -4.0250   -1.9620   -2.4030 c         1 MOL      0.439266
     66 N7         -3.2640   -2.4460   -3.3590 n         1 MOL     -0.613326
     67 O11        -3.4510   -1.7960   -1.3120 o         1 MOL     -0.224374
     68 H28        -4.9780    0.5570   -1.4180 hn        1 MOL     -0.015405
     69 H29        -7.3540   -1.0200   -1.8430 h1        1 MOL      0.164683
     70 H30        -5.5020   -0.6400   -3.3530 hc        1 MOL      0.115359
     71 H31        -5.9770   -2.3090   -3.2180 hc        1 MOL      0.115359
     72 H32        -3.6440   -2.7180   -4.2570 hn        1 MOL      0.315049
     73 H33        -2.3390   -2.7240   -3.0880 hn        1 MOL      0.315049
     74 N8         -6.2720   -1.6320    1.0580 n         1 MOL     -0.340068
     75 C23        -6.0470   -2.6830    2.1350 c3        1 MOL     -0.315098
     76 C24        -4.5870   -3.1680    2.3680 c         1 MOL      0.716082
     77 O12        -4.3170   -3.8360    3.3550 o         1 MOL     -0.609262
     78 H34        -5.8280   -0.7410    1.2500 hn        1 MOL      0.335964
     79 H35        -6.6720   -3.5410    1.8860 h1        1 MOL      0.150168
     80 H36        -6.2020   -2.3100    3.1500 h1        1 MOL      0.150168
     81 N9         -3.5980   -2.8710    1.4800 n         1 MOL     -0.378246
     82 C25        -2.2400   -3.4700    1.5100 c3        1 MOL      0.316093
     83 C26        -1.1300   -2.2980    1.4150 c         1 MOL      0.280848
     84 O13        -1.3340   -1.3200    0.7470 o         1 MOL     -0.464517
     85 C27        -2.0900   -4.6140    0.5090 c3        1 MOL     -0.120752
     86 C28        -2.8390   -5.8840    0.7300 ca        1 MOL      0.401298
     87 C29        -4.1870   -5.9680    0.4550 ca        1 MOL     -0.461844
     88 C30        -2.1230   -7.0430    1.0990 ca        1 MOL     -0.461844
     89 C31        -4.8640   -7.2070    0.4820 ca        1 MOL      0.008451
     90 C32        -2.8370   -8.2440    1.2230 ca        1 MOL      0.008451
     91 C33        -4.1340   -8.3900    0.8360 ca        1 MOL      0.051390
     92 O14        -4.8240   -9.5010    1.0290 oh        1 MOL     -0.379747
     93 H37        -3.6300   -2.1360    0.7870 hn        1 MOL      0.078843
     94 H38        -2.0720   -3.9440    2.4860 h1        1 MOL     -0.017855
     95 H39        -1.0200   -4.8260    0.6360 hc        1 MOL     -0.005926
     96 H40        -2.2990   -4.2290   -0.4830 hc        1 MOL     -0.005926
     97 H41        -4.7830   -5.0980    0.2390 ha        1 MOL      0.178591
     98 H42        -1.0950   -6.9880    1.4440 ha        1 MOL      0.178591
     99 H43        -5.9230   -7.2660    0.2630 ha        1 MOL      0.096283
    100 H44        -2.2660   -9.0040    1.7160 ha        1 MOL      0.096283
    101 H45        -4.1890  -10.1080    1.4010 ho        1 MOL      0.315774
    102 N10         0.0790   -2.6350    1.9540 n         1 MOL     -0.268844
    103 C34         1.3430   -1.9360    1.5500 c3        1 MOL     -0.200083
    104 C35         2.3490   -2.9500    0.9510 c         1 MOL      0.573456
    105 O15         2.4680   -4.0470    1.5810 o         1 MOL     -0.558651
    106 C36         2.0550   -1.0710    2.6290 c3        1 MOL      0.053308
    107 C37         2.5070   -1.8530    3.9060 c3        1 MOL      0.149555
    108 C38         1.1440    0.1140    2.8800 c3        1 MOL     -0.945611
    109 C39         3.3840   -1.2170    4.9930 c3        1 MOL     -0.240871
    110 H46         0.2370   -3.4690    2.5090 hn        1 MOL      0.275985
    111 H47         1.2470   -1.1820    0.7690 h1        1 MOL      0.126844
    112 H48         2.9790   -0.6620    2.2160 hc        1 MOL     -0.035414
    113 H49         3.1050   -2.7180    3.6090 hc        1 MOL      0.013222
    114 H50         1.6580   -2.3230    4.4060 hc        1 MOL      0.013222
    115 H51         0.9920    0.6530    1.9510 hc        1 MOL      0.304342
    116 H52         0.1730   -0.2020    3.2780 hc        1 MOL      0.304342
    117 H53         1.6690    0.8420    3.4880 hc        1 MOL      0.304342
    118 H54         4.2530   -0.8080    4.4830 hc        1 MOL      0.052266
    119 H55         2.8370   -0.4220    5.4980 hc        1 MOL      0.052266
    120 H56         3.6830   -2.0390    5.6430 hc        1 MOL      0.052266
    121 N11         3.0320   -2.5960   -0.1750 n         1 MOL     -0.504127
    122 C40         4.1430   -3.4630   -0.6870 c3        1 MOL      0.133495
    123 C41         5.5310   -2.9500   -0.2510 c         1 MOL      0.487238
    124 O16         5.6160   -1.8550    0.3540 o         1 MOL     -0.421557
    125 C42         4.0230   -3.5560   -2.2310 c3        1 MOL     -0.173116
    126 O17         4.7010   -2.4770   -2.7780 oh        1 MOL     -0.484800
    127 H57         2.8370   -1.7310   -0.6590 hn        1 MOL      0.375745
    128 H58         4.0050   -4.4890   -0.3570 h1        1 MOL      0.042422
    129 H59         2.9850   -3.4390   -2.5350 h1        1 MOL      0.108698
    130 H60         4.4620   -4.4940   -2.5520 h1        1 MOL      0.108698
    131 H61         4.9080   -2.6970   -3.6990 ho        1 MOL      0.373508
    132 N12         6.5780   -3.6910   -0.5800 n         1 MOL     -0.527654
    133 C43         8.0160   -3.3420   -0.2030 c3        1 MOL      0.175656
    134 C44         8.3670   -1.9840   -0.8800 c         1 MOL      0.471435
    135 O18         9.0380   -1.2360   -0.1800 o         1 MOL     -0.536710
    136 C45         8.8600   -4.5950   -0.6780 c3        1 MOL     -0.327310
    137 H62         6.4580   -4.5170   -1.1370 hn        1 MOL      0.312760
    138 H63         8.0160   -3.2420    0.8850 h1        1 MOL      0.097300
    139 H64         8.6360   -4.7160   -1.7330 hc        1 MOL      0.101898
    140 H65         9.9010   -4.4000   -0.4290 hc        1 MOL      0.101898
    141 H66         8.2950   -5.4110   -0.2280 hc        1 MOL      0.101898
    142 N13         7.9060   -1.6670   -2.0400 n         1 MOL     -0.302444
    143 C46         8.1340   -0.3400   -2.6480 c3        1 MOL      0.038418
    144 C47         7.3570    0.6920   -1.9320 c         1 MOL      0.450867
    145 O19         7.9090    1.7800   -1.7120 o         1 MOL     -0.514237
    146 C48         7.7680   -0.3460   -4.0760 c3        1 MOL     -0.181065
    147 H67         7.4310   -2.3670   -2.5820 hn        1 MOL      0.208389
    148 H68         9.1810   -0.0430   -2.5570 h1        1 MOL      0.101806
    149 H69         6.6840   -0.4160   -4.1870 hc        1 MOL      0.053264
    150 H70         7.9280    0.6780   -4.4120 hc        1 MOL      0.053264
    151 H71         8.1770   -1.1060   -4.7490 hc        1 MOL      0.053264
    152 N14         6.1230    0.4260   -1.4870 n         1 MOL     -0.134867
    153 C49         5.4150    1.4020   -0.6410 c3        1 MOL     -0.334074
    154 C50         6.0770    1.5820    0.7270 c         1 MOL      0.542526
    155 O20         6.0700    2.7640    1.1840 o         1 MOL     -0.578082
    156 C51         3.9460    0.9730   -0.4520 c3        1 MOL      0.210652
    157 C52         2.9930    1.0950   -1.5800 c3        1 MOL     -0.124285
    158 C53         1.6030    0.5530   -1.1980 c         1 MOL      0.638698
    159 O21         1.2530   -0.6360   -1.5390 o         1 MOL     -0.696322
    160 O22         0.7760    1.3060   -0.6690 o         1 MOL     -0.696322
    161 H72         5.8020   -0.5130   -1.6550 hn        1 MOL      0.140914
    162 H73         5.4030    2.3740   -1.1420 h1        1 MOL      0.135910
    163 H74         3.5240    1.6250    0.3070 hc        1 MOL      0.072641
    164 H75         3.8710   -0.0140   -0.0000 hc        1 MOL      0.072641
    165 H76         3.3980    0.4770   -2.3730 hc        1 MOL     -0.006709
    166 H77         2.9300    2.1670   -1.7710 hc        1 MOL     -0.006709
    167 N15         6.5170    0.4980    1.3880 n         1 MOL     -0.149509
    168 C54         7.2280    0.6830    2.6670 c3        1 MOL     -0.330692
    169 H78         6.9850    1.6630    3.0780 h1        1 MOL      0.125759
    170 H79         6.9210   -0.0910    3.3690 h1        1 MOL      0.125759
    171 H80         8.3020    0.6170    2.4980 h1        1 MOL      0.125759
    172 H81         6.5330   -0.3410    0.8370 hn        1 MOL      0.174682
    173 Ca1        -1.4450    0.0180   -1.5020 Ca        1 MOL      1.720024
    174 O23        -0.6900   -0.1500   -4.0040 oh        1 MOL     -0.898962
    175 H82         0.1580   -0.4870   -4.2930 ho        1 MOL      0.430336
    176 H83        -1.0650    0.2650   -4.7710 ho        1 MOL      0.430336
    177 O24        -0.4350   -2.6000   -2.2100 oh        1 MOL     -0.898962
    178 H84         0.4310   -2.2380   -2.4160 ho        1 MOL      0.430336
    179 H85        -0.2880   -3.5360   -2.1200 ho        1 MOL      0.430336
@<TRIPOS>BOND
     1    1    2 1   
     2    1    4 1   
     3    1    5 1   
     4    1    6 1   
     5    2    3 2   
     6    2    7 1   
     7    7    8 1   
     8    7   15 1   
     9    8    9 1   
    10    8   11 1   
    11    8   16 1   
    12    9   10 2   
    13    9   19 1   
    14   11   12 1   
    15   11   17 1   
    16   11   18 1   
    17   12   13 1   
    18   12   14 1   
    19   19   20 1   
    20   19   28 1   
    21   20   21 1   
    22   20   23 1   
    23   20   29 1   
    24   21   22 2   
    25   21   41 1   
    26   23   24 1   
    27   23   30 1   
    28   23   31 1   
    29   24   25 1   
    30   24   32 1   
    31   24   33 1   
    32   25   26 1   
    33   25   34 1   
    34   25   35 1   
    35   26   27 1   
    36   26   36 1   
    37   26   37 1   
    38   27   38 1   
    39   27   39 1   
    40   27   40 1   
    41   41   42 1   
    42   41   49 1   
    43   42   43 1   
    44   42   45 1   
    45   42   50 1   
    46   43   44 2   
    47   43   53 1   
    48   45   46 1   
    49   45   51 1   
    50   45   52 1   
    51   46   47 1   
    52   46   48 1   
    53   53   54 1   
    54   53   57 1   
    55   54   55 1   
    56   54   58 1   
    57   54   59 1   
    58   55   56 2   
    59   55   60 1   
    60   60   61 1   
    61   60   68 1   
    62   61   62 1   
    63   61   64 1   
    64   61   69 1   
    65   62   63 2   
    66   62   74 1   
    67   64   65 1   
    68   64   70 1   
    69   64   71 1   
    70   65   66 1   
    71   65   67 2   
    72   66   72 1   
    73   66   73 1   
    74   74   75 1   
    75   74   78 1   
    76   75   76 1   
    77   75   79 1   
    78   75   80 1   
    79   76   77 2   
    80   76   81 1   
    81   81   82 1   
    82   81   93 1   
    83   82   83 1   
    84   82   85 1   
    85   82   94 1   
    86   83   84 2   
    87   83  102 1   
    88   85   86 1   
    89   85   95 1   
    90   85   96 1   
    91   86   87 ar  
    92   86   88 ar  
    93   87   89 ar  
    94   87   97 1   
    95   88   90 ar  
    96   88   98 1   
    97   89   91 ar  
    98   89   99 1   
    99   90   91 ar  
   100   90  100 1   
   101   91   92 1   
   102   92  101 1   
   103  102  103 1   
   104  102  110 1   
   105  103  104 1   
   106  103  106 1   
   107  103  111 1   
   108  104  105 2   
   109  104  121 1   
   110  106  107 1   
   111  106  108 1   
   112  106  112 1   
   113  107  109 1   
   114  107  113 1   
   115  107  114 1   
   116  108  115 1   
   117  108  116 1   
   118  108  117 1   
   119  109  118 1   
   120  109  119 1   
   121  109  120 1   
   122  121  122 1   
   123  121  127 1   
   124  122  123 1   
   125  122  125 1   
   126  122  128 1   
   127  123  124 2   
   128  123  132 1   
   129  125  126 1   
   130  125  129 1   
   131  125  130 1   
   132  126  131 1   
   133  132  133 1   
   134  132  137 1   
   135  133  134 1   
   136  133  136 1   
   137  133  138 1   
   138  134  135 2   
   139  134  142 1   
   140  136  139 1   
   141  136  140 1   
   142  136  141 1   
   143  142  143 1   
   144  142  147 1   
   145  143  144 1   
   146  143  146 1   
   147  143  148 1   
   148  144  145 2   
   149  144  152 1   
   150  146  149 1   
   151  146  150 1   
   152  146  151 1   
   153  152  153 1   
   154  152  161 1   
   155  153  154 1   
   156  153  156 1   
   157  153  162 1   
   158  154  155 2   
   159  154  167 1   
   160  156  157 1   
   161  156  163 1   
   162  156  164 1   
   163  157  158 1   
   164  157  165 1   
   165  157  166 1   
   166  158  159 1   
   167  158  160 1   
   168  167  168 1   
   169  167  172 1   
   170  168  169 1   
   171  168  170 1   
   172  168  171 1   
   173  174  175 1   
   174  174  176 1   
   175  177  178 1   
   176  177  179 1   
@<TRIPOS>SUBSTRUCTURE
     1 MOL         1 TEMP              0 ****  ****    0 ROOT
