@<TRIPOS>MOLECULE
MOL
  179   176     1     0     0
SMALL
resp


@<TRIPOS>ATOM
      1 C1          2.0240    2.4180    5.6140 c3        1 MOL     -0.303947
      2 C2          1.4860    2.4370    4.2040 c         1 MOL      0.695137
      3 O1          2.1750    2.3310    3.2190 o         1 MOL     -0.626443
      4 H1          1.5600    3.2190    6.1900 hc        1 MOL      0.085307
      5 H2          1.7950    1.4590    6.0780 hc        1 MOL      0.085307
      6 H3          3.1040    2.5650    5.5940 hc        1 MOL      0.085307
      7 N1          0.1460    2.3980    4.0240 n         1 MOL     -0.526280
      8 C3         -0.6280    2.2560    2.8220 c3        1 MOL      0.005176
      9 C4         -0.8920    3.5290    1.9870 c         1 MOL      0.497123
     10 O2         -1.8990    4.1920    2.1590 o         1 MOL     -0.473716
     11 C5         -1.9450    1.5030    3.2450 c3        1 MOL     -0.018088
     12 C6         -2.8250    1.0790    2.0100 c         1 MOL      0.682313
     13 O3         -4.0130    0.7540    2.3090 o         1 MOL     -0.724807
     14 O4         -2.4820    1.3230    0.8370 o         1 MOL     -0.724807
     15 H4         -0.3600    2.3950    4.8980 hn        1 MOL      0.289726
     16 H5         -0.0390    1.6230    2.1510 h1        1 MOL      0.004289
     17 H6         -2.5720    1.9730    3.9960 hc        1 MOL      0.031577
     18 H7         -1.5780    0.5870    3.7000 hc        1 MOL      0.031577
     19 N2         -0.0030    3.9210    1.1050 n         1 MOL     -0.328486
     20 C7          0.0580    5.2240    0.3770 c3        1 MOL     -0.051649
     21 C8         -1.1080    5.7050   -0.4420 c         1 MOL      0.415098
     22 O5         -1.1760    6.8770   -0.8580 o         1 MOL     -0.574964
     23 C9          1.3930    5.3210   -0.4800 c3        1 MOL     -0.096572
     24 C10         2.7350    5.3590    0.2730 c3        1 MOL     -0.007645
     25 C11         3.9330    5.9990   -0.5540 c3        1 MOL     -0.237268
     26 C12         5.3460    5.8750    0.0920 c3        1 MOL      0.118894
     27 N3          6.4880    5.9690   -0.8270 n4        1 MOL     -0.390125
     28 H8          0.7250    3.2730    0.8460 hn        1 MOL      0.305268
     29 H9          0.1320    6.0270    1.1080 h1        1 MOL      0.103040
     30 H10         1.4020    6.2690   -1.0160 hc        1 MOL      0.071108
     31 H11         1.3740    4.6020   -1.2920 hc        1 MOL      0.071108
     32 H12         3.0360    4.3230    0.4430 hc        1 MOL      0.051558
     33 H13         2.5250    5.8840    1.2040 hc        1 MOL      0.051558
     34 H14         3.6360    7.0040   -0.8610 hc        1 MOL      0.087745
     35 H15         3.8820    5.4930   -1.5160 hc        1 MOL      0.087745
     36 H16         5.4150    4.9440    0.6510 hx        1 MOL      0.083471
     37 H17         5.5150    6.5410    0.9480 hx        1 MOL      0.083471
     38 H18         6.4600    6.6970   -1.5230 hn        1 MOL      0.335874
     39 H19         7.4000    5.9450   -0.3920 hn        1 MOL      0.335874
     40 H20         6.5190    5.0960   -1.3230 hn        1 MOL      0.335874
     41 N4         -1.9760    4.8180   -0.8380 n         1 MOL     -0.086890
     42 C13        -3.1990    5.1240   -1.6380 c3        1 MOL      0.031940
     43 C14        -4.4390    4.6020   -0.8640 c         1 MOL      0.352844
     44 O6         -5.5310    4.6770   -1.4020 o         1 MOL     -0.503074
     45 C15        -3.0060    4.7150   -3.0580 c3        1 MOL     -0.152997
     46 C16        -2.5680    3.3020   -3.2210 c         1 MOL      0.701384
     47 O7         -2.9110    2.3230   -2.4360 o         1 MOL     -0.690883
     48 O8         -1.8180    3.0420   -4.1980 o         1 MOL     -0.690883
     49 H21        -1.8800    3.8450   -0.5940 hn        1 MOL      0.085724
     50 H22        -3.4020    6.1970   -1.6940 h1        1 MOL      0.113127
     51 H23        -2.2290    5.3900   -3.4250 hc        1 MOL      0.060375
     52 H24        -3.9140    4.9210   -3.6300 hc        1 MOL      0.060375
     53 N5         -4.2750    4.0390    0.3980 n         1 MOL     -0.139707
     54 C17        -5.3340    3.5310    1.2600 c3        1 MOL     -0.089829
     55 C18        -6.1920    2.3370    0.5840 c         1 MOL      0.500685
     56 O9         -7.3460    2.1590    0.9410 o         1 MOL     -0.572368
     57 H25        -3.3600    3.9760    0.8220 hn        1 MOL      0.050020
     58 H26        -6.0680    4.3040    1.4730 h1        1 MOL      0.096709
     59 H27        -4.9910    3.2400    2.2540 h1        1 MOL      0.096709
     60 N6         -5.6600    1.5660   -0.4270 n         1 MOL     -0.173431
     61 C19        -6.3470    0.5240   -1.1550 c3        1 MOL     -0.093428
     62 C20        -6.4840   -0.7220   -0.3080 c         1 MOL      0.194402
     63 O10        -6.9570   -1.7510   -0.7750 o         1 MOL     -0.409597
     64 C21        -5.8200    0.2670   -2.5110 c3        1 MOL     -0.158044
     65 C22        -4.4980   -0.4490   -2.5220 c         1 MOL      0.767857
     66 N7         -3.9930   -0.8260   -3.6410 n         1 MOL     -0.921476
     67 O11        -3.8030   -0.4550   -1.5730 o         1 MOL     -0.577617
     68 H28        -4.6760    1.5910   -0.6670 hn        1 MOL      0.111060
     69 H29        -7.3140    0.9660   -1.3910 h1        1 MOL      0.148515
     70 H30        -5.8510    1.1750   -3.0950 hc        1 MOL      0.080405
     71 H31        -6.5670   -0.3790   -2.9720 hc        1 MOL      0.080405
     72 H32        -4.5510   -0.8170   -4.4810 hn        1 MOL      0.398681
     73 H33        -3.1060   -1.3120   -3.5750 hn        1 MOL      0.398681
     74 N8         -6.1650   -0.6660    0.9560 n         1 MOL      0.003733
     75 C23        -6.2260   -1.6990    1.8840 c3        1 MOL     -0.443726
     76 C24        -5.0710   -2.6650    1.8040 c         1 MOL      0.673789
     77 O12        -5.1510   -3.7560    2.3860 o         1 MOL     -0.569307
     78 H34        -5.8780    0.2410    1.3060 hn        1 MOL      0.288212
     79 H35        -7.0840   -2.3530    1.7120 h1        1 MOL      0.168608
     80 H36        -6.3250   -1.3800    2.9200 h1        1 MOL      0.168608
     81 N9         -3.9570   -2.3520    1.1410 n         1 MOL     -0.433814
     82 C25        -2.8350   -3.2240    1.0160 c3        1 MOL      0.022196
     83 C26        -1.4600   -2.5100    1.0580 c         1 MOL      0.512591
     84 O13        -1.3280   -1.3590    0.6200 o         1 MOL     -0.595625
     85 C27        -2.8680   -4.0710   -0.2490 c3        1 MOL      0.323511
     86 C28        -4.1330   -4.8890   -0.4960 ca        1 MOL     -0.300942
     87 C29        -5.1870   -4.1690   -1.1130 ca        1 MOL     -0.040388
     88 C30        -4.3200   -6.1690    0.0240 ca        1 MOL     -0.040388
     89 C31        -6.4210   -4.8370   -1.1950 ca        1 MOL     -0.258128
     90 C32        -5.5480   -6.8690   -0.1050 ca        1 MOL     -0.258128
     91 C33        -6.5970   -6.1450   -0.7090 ca        1 MOL      0.362848
     92 O14        -7.8670   -6.6700   -0.8460 oh        1 MOL     -0.508804
     93 H37        -3.8920   -1.4700    0.6640 hn        1 MOL      0.302794
     94 H38        -2.8390   -3.9530    1.8250 h1        1 MOL      0.044843
     95 H39        -2.0400   -4.7670   -0.2710 hc        1 MOL     -0.049154
     96 H40        -2.7340   -3.4820   -1.1520 hc        1 MOL     -0.049154
     97 H41        -5.0760   -3.1600   -1.4710 ha        1 MOL      0.099637
     98 H42        -3.5630   -6.7660    0.5200 ha        1 MOL      0.099637
     99 H43        -7.2240   -4.3030   -1.6950 ha        1 MOL      0.127743
    100 H44        -5.6470   -7.9080    0.1780 ha        1 MOL      0.127743
    101 H45        -7.9280   -7.5090   -0.3880 ho        1 MOL      0.364595
    102 N10        -0.4170   -3.1920    1.5590 n         1 MOL     -0.509981
    103 C34         0.9670   -2.7180    1.6080 c3        1 MOL      0.101196
    104 C35         1.7760   -3.5950    0.6870 c         1 MOL      0.385035
    105 O15         1.9840   -4.8020    0.9810 o         1 MOL     -0.539990
    106 C36         1.3990   -2.7480    3.1180 c3        1 MOL      0.136761
    107 C37         0.6710   -1.6810    3.9860 c3        1 MOL     -0.170256
    108 C38         2.9510   -2.5000    3.3280 c3        1 MOL     -0.190806
    109 C39         0.8050   -2.0240    5.4790 c3        1 MOL     -0.192608
    110 H46        -0.7190   -4.0300    2.0410 hn        1 MOL      0.305521
    111 H47         0.9650   -1.7230    1.1580 h1        1 MOL      0.038190
    112 H48         1.1530   -3.7450    3.4660 hc        1 MOL      0.033514
    113 H49        -0.3490   -1.5280    3.6400 hc        1 MOL      0.088521
    114 H50         1.2160   -0.7520    3.8280 hc        1 MOL      0.088521
    115 H51         3.4920   -3.3230    2.8590 hc        1 MOL      0.042996
    116 H52         3.2950   -1.5580    2.9020 hc        1 MOL      0.042996
    117 H53         3.1890   -2.6450    4.3780 hc        1 MOL      0.042996
    118 H54         0.6530   -3.0740    5.7230 hc        1 MOL      0.057703
    119 H55         1.7750   -1.7990    5.9060 hc        1 MOL      0.057703
    120 H56         0.1560   -1.4320    6.1270 hc        1 MOL      0.057703
    121 N11         2.2930   -2.9960   -0.3390 n         1 MOL     -0.270295
    122 C40         3.2860   -3.5470   -1.2780 c3        1 MOL      0.033213
    123 C41         4.6770   -3.5690   -0.6540 c         1 MOL      0.421911
    124 O16         4.8960   -2.7320    0.2370 o         1 MOL     -0.394880
    125 C42         3.3170   -2.8520   -2.6190 c3        1 MOL     -0.216175
    126 O17         4.2970   -1.7920   -2.6840 oh        1 MOL     -0.429827
    127 H57         2.0370   -2.0450   -0.5450 hn        1 MOL      0.371143
    128 H58         3.1080   -4.6030   -1.5040 h1        1 MOL      0.059451
    129 H59         2.3510   -2.3920   -2.7800 h1        1 MOL      0.121976
    130 H60         3.4810   -3.5510   -3.4460 h1        1 MOL      0.121976
    131 H61         4.0300   -1.3710   -3.5000 ho        1 MOL      0.397858
    132 N12         5.6380   -4.3240   -1.2130 n         1 MOL     -0.367726
    133 C43         7.0160   -4.2990   -0.7250 c3        1 MOL      0.111591
    134 C44         7.7570   -2.9980   -1.0150 c         1 MOL      0.464968
    135 O18         8.5560   -2.5900   -0.1810 o         1 MOL     -0.522519
    136 C45         7.8460   -5.4890   -1.3190 c3        1 MOL     -0.378319
    137 H62         5.3910   -5.0350   -1.8870 hn        1 MOL      0.277647
    138 H63         6.9280   -4.4810    0.3450 h1        1 MOL      0.112393
    139 H64         7.6950   -5.7070   -2.3740 hc        1 MOL      0.116198
    140 H65         8.9090   -5.2710   -1.2430 hc        1 MOL      0.116198
    141 H66         7.6520   -6.3540   -0.6860 hc        1 MOL      0.116198
    142 N13         7.3410   -2.2930   -2.0640 n         1 MOL     -0.280306
    143 C46         7.7480   -0.9780   -2.3920 c3        1 MOL     -0.012025
    144 C47         7.2610    0.1540   -1.4100 c         1 MOL      0.478598
    145 O19         8.0120    1.0750   -1.2450 o         1 MOL     -0.519293
    146 C48         7.4410   -0.7190   -3.8330 c3        1 MOL     -0.093256
    147 H67         6.7060   -2.7290   -2.7300 hn        1 MOL      0.198256
    148 H68         8.8310   -0.8320   -2.3290 h1        1 MOL      0.096084
    149 H69         8.0010    0.1030   -4.2680 hc        1 MOL      0.034724
    150 H70         7.7350   -1.5280   -4.5030 hc        1 MOL      0.034724
    151 H71         6.3760   -0.6110   -4.0440 hc        1 MOL      0.034724
    152 N14         5.9510    0.0910   -1.0190 n         1 MOL     -0.276109
    153 C49         5.3270    0.8760    0.0850 c3        1 MOL     -0.056139
    154 C50         5.8570    0.5850    1.4560 c         1 MOL      0.411668
    155 O20         6.1170    1.5720    2.1800 o         1 MOL     -0.566356
    156 C51         3.7930    0.6500    0.1370 c3        1 MOL      0.086229
    157 C52         3.1020    1.2450   -1.0430 c3        1 MOL     -0.109102
    158 C53         1.5810    0.9800   -0.9820 c         1 MOL      0.768840
    159 O21         1.2280   -0.2420   -0.8850 o         1 MOL     -0.742831
    160 O22         0.7580    1.8860   -1.0180 o         1 MOL     -0.742831
    161 H72         5.4830   -0.7470   -1.3330 hn        1 MOL      0.126498
    162 H73         5.5850    1.9280   -0.0430 h1        1 MOL      0.080758
    163 H74         3.3870    1.1090    1.0410 hc        1 MOL      0.026668
    164 H75         3.5400   -0.4070    0.0760 hc        1 MOL      0.026668
    165 H76         3.4630    0.7220   -1.9270 hc        1 MOL     -0.029312
    166 H77         3.4130    2.2990   -1.0480 hc        1 MOL     -0.029312
    167 N15         6.2770   -0.6550    1.7910 n         1 MOL      0.015967
    168 C54         7.0790   -0.9080    3.0600 c3        1 MOL     -0.338103
    169 H78         6.7620   -0.2100    3.8350 h1        1 MOL      0.129879
    170 H79         6.9090   -1.9300    3.4010 h1        1 MOL      0.129879
    171 H80         8.1400   -0.7650    2.8550 h1        1 MOL      0.129879
    172 H81         6.1150   -1.4100    1.1300 hn        1 MOL      0.070143
    173 Ca1        -1.3400    0.4110   -1.2580 Ca        1 MOL      1.732338
    174 O23        -1.1150   -2.0030   -2.4980 oh        1 MOL     -0.868264
    175 H82        -1.4900   -2.1770   -3.3720 ho        1 MOL      0.405338
    176 H83        -0.4220   -2.6580   -2.4110 ho        1 MOL      0.405338
    177 O24        -0.6200    0.5260   -4.1960 oh        1 MOL     -0.868264
    178 H84        -0.9340   -0.0260   -4.9100 ho        1 MOL      0.405338
    179 H85        -0.9630    1.3930   -4.4050 ho        1 MOL      0.405338
@<TRIPOS>BOND
     1    1    2 1   
     2    1    4 1   
     3    1    5 1   
     4    1    6 1   
     5    2    3 2   
     6    2    7 1   
     7    7    8 1   
     8    7   15 1   
     9    8    9 1   
    10    8   11 1   
    11    8   16 1   
    12    9   10 2   
    13    9   19 1   
    14   11   12 1   
    15   11   17 1   
    16   11   18 1   
    17   12   13 1   
    18   12   14 1   
    19   19   20 1   
    20   19   28 1   
    21   20   21 1   
    22   20   23 1   
    23   20   29 1   
    24   21   22 2   
    25   21   41 1   
    26   23   24 1   
    27   23   30 1   
    28   23   31 1   
    29   24   25 1   
    30   24   32 1   
    31   24   33 1   
    32   25   26 1   
    33   25   34 1   
    34   25   35 1   
    35   26   27 1   
    36   26   36 1   
    37   26   37 1   
    38   27   38 1   
    39   27   39 1   
    40   27   40 1   
    41   41   42 1   
    42   41   49 1   
    43   42   43 1   
    44   42   45 1   
    45   42   50 1   
    46   43   44 2   
    47   43   53 1   
    48   45   46 1   
    49   45   51 1   
    50   45   52 1   
    51   46   47 1   
    52   46   48 1   
    53   53   54 1   
    54   53   57 1   
    55   54   55 1   
    56   54   58 1   
    57   54   59 1   
    58   55   56 2   
    59   55   60 1   
    60   60   61 1   
    61   60   68 1   
    62   61   62 1   
    63   61   64 1   
    64   61   69 1   
    65   62   63 2   
    66   62   74 1   
    67   64   65 1   
    68   64   70 1   
    69   64   71 1   
    70   65   66 1   
    71   65   67 2   
    72   66   72 1   
    73   66   73 1   
    74   74   75 1   
    75   74   78 1   
    76   75   76 1   
    77   75   79 1   
    78   75   80 1   
    79   76   77 2   
    80   76   81 1   
    81   81   82 1   
    82   81   93 1   
    83   82   83 1   
    84   82   85 1   
    85   82   94 1   
    86   83   84 2   
    87   83  102 1   
    88   85   86 1   
    89   85   95 1   
    90   85   96 1   
    91   86   87 ar  
    92   86   88 ar  
    93   87   89 ar  
    94   87   97 1   
    95   88   90 ar  
    96   88   98 1   
    97   89   91 ar  
    98   89   99 1   
    99   90   91 ar  
   100   90  100 1   
   101   91   92 1   
   102   92  101 1   
   103  102  103 1   
   104  102  110 1   
   105  103  104 1   
   106  103  106 1   
   107  103  111 1   
   108  104  105 2   
   109  104  121 1   
   110  106  107 1   
   111  106  108 1   
   112  106  112 1   
   113  107  109 1   
   114  107  113 1   
   115  107  114 1   
   116  108  115 1   
   117  108  116 1   
   118  108  117 1   
   119  109  118 1   
   120  109  119 1   
   121  109  120 1   
   122  121  122 1   
   123  121  127 1   
   124  122  123 1   
   125  122  125 1   
   126  122  128 1   
   127  123  124 2   
   128  123  132 1   
   129  125  126 1   
   130  125  129 1   
   131  125  130 1   
   132  126  131 1   
   133  132  133 1   
   134  132  137 1   
   135  133  134 1   
   136  133  136 1   
   137  133  138 1   
   138  134  135 2   
   139  134  142 1   
   140  136  139 1   
   141  136  140 1   
   142  136  141 1   
   143  142  143 1   
   144  142  147 1   
   145  143  144 1   
   146  143  146 1   
   147  143  148 1   
   148  144  145 2   
   149  144  152 1   
   150  146  149 1   
   151  146  150 1   
   152  146  151 1   
   153  152  153 1   
   154  152  161 1   
   155  153  154 1   
   156  153  156 1   
   157  153  162 1   
   158  154  155 2   
   159  154  167 1   
   160  156  157 1   
   161  156  163 1   
   162  156  164 1   
   163  157  158 1   
   164  157  165 1   
   165  157  166 1   
   166  158  159 1   
   167  158  160 1   
   168  167  168 1   
   169  167  172 1   
   170  168  169 1   
   171  168  170 1   
   172  168  171 1   
   173  174  175 1   
   174  174  176 1   
   175  177  178 1   
   176  177  179 1   
@<TRIPOS>SUBSTRUCTURE
     1 MOL         1 TEMP              0 ****  ****    0 ROOT
