@<TRIPOS>MOLECULE
MOL
  175   173     1     0     0
SMALL
resp


@<TRIPOS>ATOM
      1 C1          0.9530    3.3840    5.5430 c3        1 MOL     -0.360889
      2 C2          0.2890    3.5190    4.1370 c         1 MOL      0.696329
      3 O1          0.9320    3.8610    3.2130 o         1 MOL     -0.527199
      4 H1          1.1790    4.3760    5.9330 hc        1 MOL      0.084783
      5 H2          0.2690    2.8740    6.2200 hc        1 MOL      0.084783
      6 H3          1.8760    2.8090    5.4560 hc        1 MOL      0.084783
      7 N1         -0.9930    3.1840    4.0440 n         1 MOL     -0.606405
      8 C3         -1.7320    3.1840    2.7950 c3        1 MOL      0.106177
      9 C4         -1.7720    4.5260    2.0630 c         1 MOL      0.634184
     10 O2         -1.9710    5.5490    2.6590 o         1 MOL     -0.572678
     11 C5         -3.1820    2.7950    3.1970 c3        1 MOL     -0.285023
     12 C6         -3.9820    2.5950    1.9320 c         1 MOL      0.638679
     13 O3         -3.4830    2.0650    0.8840 o         1 MOL     -0.635836
     14 O4         -5.0890    3.1310    1.8320 o         1 MOL     -0.635836
     15 H4         -1.4530    2.8080    4.8630 hn        1 MOL      0.313341
     16 H5         -1.3510    2.4760    2.0560 h1        1 MOL     -0.010984
     17 H6         -3.6750    3.5550    3.7870 hc        1 MOL      0.070349
     18 H7         -3.2150    1.8870    3.7990 hc        1 MOL      0.070349
     19 N2         -1.7500    4.3810    0.7220 n         1 MOL     -0.339787
     20 C7         -1.8800    5.5110   -0.2220 c3        1 MOL      0.142810
     21 C8         -2.9530    5.3350   -1.3830 c         1 MOL      0.420510
     22 O5         -2.9830    6.1320   -2.3270 o         1 MOL     -0.527880
     23 C9         -0.4930    5.6970   -0.8890 c3        1 MOL     -0.191954
     24 H8         -1.4930    3.4750    0.3640 hn        1 MOL      0.195268
     25 H9         -2.0790    6.4160    0.3560 h1        1 MOL      0.031230
     26 H10         0.2240    5.9910   -0.1250 hc        1 MOL      0.046230
     27 H11        -0.1500    4.7200   -1.2480 hc        1 MOL      0.046230
     28 H12        -0.5670    6.3420   -1.7650 hc        1 MOL      0.046230
     29 N3         -3.7930    4.2650   -1.3430 n         1 MOL     -0.270472
     30 C10        -4.6590    3.8670   -2.4330 c3        1 MOL     -0.091149
     31 C11        -5.9330    3.0290   -2.0670 c         1 MOL      0.498822
     32 O6         -6.7450    2.7960   -2.9710 o         1 MOL     -0.566141
     33 C12        -3.8230    2.9590   -3.4490 c3        1 MOL      0.051053
     34 C13        -3.0860    1.8030   -2.7920 c         1 MOL      0.709136
     35 O7         -1.8600    1.5700   -2.9590 o         1 MOL     -0.707494
     36 O8         -3.7680    0.9910   -2.1720 o         1 MOL     -0.707494
     37 H13        -3.6800    3.6610   -0.5420 hn        1 MOL      0.178936
     38 H14        -4.9560    4.7810   -2.9510 h1        1 MOL      0.093526
     39 H15        -3.1120    3.5520   -4.0200 hc        1 MOL     -0.007300
     40 H16        -4.4010    2.5320   -4.2640 hc        1 MOL     -0.007300
     41 N4         -6.1000    2.6740   -0.7720 n         1 MOL     -0.331560
     42 C14        -7.1670    1.8020   -0.2400 c3        1 MOL     -0.006353
     43 C15        -7.2520    0.3970   -0.6520 c         1 MOL      0.445330
     44 O9         -8.3440   -0.0890   -0.4700 o         1 MOL     -0.626903
     45 H17        -5.3020    2.8010   -0.1740 hn        1 MOL      0.188000
     46 H18        -8.0610    2.3140   -0.5760 h1        1 MOL      0.077012
     47 H19        -7.2660    1.8650    0.8360 h1        1 MOL      0.077012
     48 N5         -6.3580   -0.1460   -1.4600 n         1 MOL     -0.019001
     49 C16        -6.4440   -1.4590   -2.0840 c3        1 MOL     -0.068020
     50 C17        -6.4610   -2.6930   -1.1280 c         1 MOL      0.458038
     51 O10        -6.5290   -3.7960   -1.6660 o         1 MOL     -0.502818
     52 C18        -5.3020   -1.5390   -3.0150 c3        1 MOL     -0.232139
     53 C19        -3.9710   -1.7940   -2.4210 c         1 MOL      0.589702
     54 N6         -3.0020   -2.0310   -3.2480 n         1 MOL     -0.583866
     55 O11        -3.8220   -1.9410   -1.2190 o         1 MOL     -0.518515
     56 H20        -5.5110    0.3880   -1.6340 hn        1 MOL      0.031014
     57 H21        -7.3630   -1.4670   -2.6680 h1        1 MOL      0.107180
     58 H22        -5.3400   -0.5760   -3.5090 hc        1 MOL      0.091530
     59 H23        -5.4770   -2.2840   -3.7890 hc        1 MOL      0.091530
     60 H24        -3.1360   -2.0240   -4.2500 hn        1 MOL      0.319854
     61 H25        -2.0710   -2.0120   -2.8700 hn        1 MOL      0.319854
     62 N7         -6.5720   -2.4800    0.2250 n         1 MOL     -0.293391
     63 C20        -6.5940   -3.5960    1.2080 c3        1 MOL     -0.349088
     64 C21        -5.2750   -4.4050    1.3840 c         1 MOL      0.482164
     65 O12        -5.2540   -5.4360    2.0630 o         1 MOL     -0.570358
     66 H26        -6.6250   -1.5120    0.5130 hn        1 MOL      0.285111
     67 H27        -7.3970   -4.2890    0.9510 h1        1 MOL      0.161347
     68 H28        -6.7490   -3.1350    2.1810 h1        1 MOL      0.161347
     69 N8         -4.1350   -3.9800    0.8000 n         1 MOL      0.066342
     70 C22        -2.7580   -4.5450    0.9620 c3        1 MOL     -0.427271
     71 C23        -1.6480   -3.6050    1.1960 c         1 MOL      0.722822
     72 O13        -1.7670   -2.4220    0.8520 o         1 MOL     -0.568318
     73 C24        -2.4690   -5.2930   -0.3250 c3        1 MOL      0.704039
     74 C25        -3.5130   -6.3350   -0.7550 c3        1 MOL     -0.406799
     75 O14        -2.2190   -4.5040   -1.4800 oh        1 MOL     -0.619146
     76 H29        -4.1000   -3.0690    0.3790 hn        1 MOL      0.012225
     77 H30        -2.7250   -5.2450    1.7990 h1        1 MOL      0.102348
     78 H31        -1.5850   -5.9090   -0.1680 h1        1 MOL     -0.074478
     79 H32        -2.6780   -3.6810   -1.2470 ho        1 MOL      0.307510
     80 H33        -4.3710   -5.7870   -1.1350 hc        1 MOL      0.080179
     81 H34        -3.0790   -6.9910   -1.5060 hc        1 MOL      0.080179
     82 H35        -3.7790   -6.9410    0.1150 hc        1 MOL      0.080179
     83 N9         -0.5390   -4.0970    1.6870 n         1 MOL     -0.701630
     84 C26         0.6510   -3.2220    1.7480 c3        1 MOL      0.235354
     85 C27         1.2760   -3.2780    0.3710 c         1 MOL      0.463591
     86 O15         1.6370   -4.3710   -0.0870 o         1 MOL     -0.555745
     87 C28         1.6240   -3.6440    2.8470 c3        1 MOL      0.033951
     88 C29         0.8130   -4.0400    4.1300 c3        1 MOL      0.027830
     89 C30         2.6840   -2.5570    2.9760 c3        1 MOL     -0.107411
     90 C31         1.6720   -4.1160    5.3490 c3        1 MOL     -0.096841
     91 H36        -0.4040   -5.0640    1.9360 hn        1 MOL      0.350376
     92 H37         0.3380   -2.1770    1.7820 h1        1 MOL      0.002626
     93 H38         2.1000   -4.4850    2.3270 hc        1 MOL     -0.007656
     94 H39         0.3470   -5.0110    3.9890 hc        1 MOL      0.011202
     95 H40         0.0500   -3.2850    4.3360 hc        1 MOL      0.011202
     96 H41         2.0990   -1.6560    3.1570 hc        1 MOL      0.025275
     97 H42         3.3490   -2.6320    3.8390 hc        1 MOL      0.025275
     98 H43         3.2030   -2.5130    2.0120 hc        1 MOL      0.025275
     99 H44         2.4490   -4.8900    5.2710 hc        1 MOL      0.015518
    100 H45         2.0990   -3.1760    5.7030 hc        1 MOL      0.015518
    101 H46         1.0200   -4.4310    6.1600 hc        1 MOL      0.015518
    102 N10         1.6080   -2.0890   -0.2090 n         1 MOL     -0.174867
    103 C32         2.3720   -1.9710   -1.3890 c3        1 MOL      0.171456
    104 C33         3.8430   -1.5960   -1.0830 c         1 MOL      0.332767
    105 O16         4.1860   -1.2530    0.0200 o         1 MOL     -0.291373
    106 C34         1.7370   -0.9790   -2.3690 c3        1 MOL     -0.252386
    107 C35         0.3450   -1.2380   -2.8440 c         1 MOL      0.766831
    108 O17        -0.5360   -1.2980   -1.9850 o         1 MOL     -0.678777
    109 O18         0.1090   -1.4270   -4.0280 o         1 MOL     -0.678777
    110 H47         1.3370   -1.2130    0.2160 hn        1 MOL     -0.048144
    111 H48         2.4460   -2.9130   -1.9220 h1        1 MOL      0.041416
    112 H49         2.3860   -1.0180   -3.2460 hc        1 MOL      0.044682
    113 H50         1.7290    0.0290   -1.9390 hc        1 MOL      0.044682
    114 N11         4.7230   -1.4300   -2.0390 n         1 MOL     -0.542991
    115 C36         6.1690   -1.3540   -1.7680 c3        1 MOL      0.258838
    116 C37         6.5730   -0.0940   -0.9820 c         1 MOL      0.548738
    117 O19         7.1370   -0.2290    0.0800 o         1 MOL     -0.532405
    118 C38         7.0100   -1.6580   -2.9610 c3        1 MOL     -0.208623
    119 C39         8.4730   -1.4710   -2.6200 ca        1 MOL      0.146622
    120 C40         9.2230   -2.3390   -1.7890 ca        1 MOL     -0.227813
    121 C41         9.2080   -0.3750   -3.1710 ca        1 MOL     -0.227813
    122 C42        10.5020   -2.0410   -1.4440 ca        1 MOL     -0.061881
    123 C43        10.5540   -0.1300   -2.8780 ca        1 MOL     -0.061881
    124 C44        11.2110   -0.9500   -1.9640 ca        1 MOL     -0.130286
    125 H51         4.4610   -1.6240   -2.9890 hn        1 MOL      0.329173
    126 H52         6.5060   -2.1310   -1.0850 h1        1 MOL      0.049197
    127 H53         6.6420   -1.0790   -3.8140 hc        1 MOL      0.054433
    128 H54         6.8170   -2.6930   -3.2130 hc        1 MOL      0.054433
    129 H55         8.7190   -3.2170   -1.4060 ha        1 MOL      0.131810
    130 H56         8.6700    0.3060   -3.8220 ha        1 MOL      0.131810
    131 H57        11.0090   -2.7250   -0.7740 ha        1 MOL      0.095344
    132 H58        11.2060    0.5580   -3.4080 ha        1 MOL      0.095344
    133 H59        12.2390   -0.7370   -1.7340 ha        1 MOL      0.106173
    134 N12         6.3010    1.1520   -1.4150 n         1 MOL     -0.147775
    135 C45         6.7910    2.3350   -0.7220 c3        1 MOL     -0.045647
    136 C46         6.0180    2.3930    0.5700 c         1 MOL      0.508478
    137 O20         6.5650    2.8480    1.5430 o         1 MOL     -0.539979
    138 C47         6.6380    3.4980   -1.7520 c3        1 MOL     -0.189541
    139 C48         5.5000    3.1740   -2.5940 c3        1 MOL      0.119282
    140 C49         5.7170    1.6020   -2.6880 c3        1 MOL      0.007921
    141 H60         7.8080    2.2150   -0.3560 h1        1 MOL      0.070962
    142 H61         6.4880    4.4440   -1.2440 hc        1 MOL      0.063339
    143 H62         7.5340    3.5040   -2.3750 hc        1 MOL      0.063339
    144 H63         4.5800    3.3400   -2.0360 hc        1 MOL      0.004650
    145 H64         5.4620    3.5960   -3.5990 hc        1 MOL      0.004650
    146 H65         4.7250    1.2050   -2.9050 h1        1 MOL      0.000847
    147 H66         6.3630    1.3670   -3.5400 h1        1 MOL      0.000847
    148 N13         4.8000    1.8990    0.6650 n         1 MOL     -0.289352
    149 C50         4.1980    1.6720    1.9770 c3        1 MOL     -0.019884
    150 C51         4.9310    0.7060    2.9200 c         1 MOL      0.409913
    151 O21         5.1220    1.0300    4.0790 o         1 MOL     -0.554864
    152 C52         2.7720    1.2210    1.7720 c3        1 MOL      0.111911
    153 C53         2.0180    1.6820    0.5510 c3        1 MOL     -0.140000
    154 C54         0.5130    1.3030    0.5430 c         1 MOL      0.644829
    155 O22        -0.3560    1.8550   -0.2020 o         1 MOL     -0.610446
    156 O23         0.1530    0.2080    1.0340 o         1 MOL     -0.610446
    157 H67         4.4630    1.4450   -0.1690 hn        1 MOL      0.224361
    158 H68         4.1690    2.6370    2.4910 h1        1 MOL      0.081761
    159 H69         2.1670    1.4420    2.6540 hc        1 MOL     -0.026832
    160 H70         2.8620    0.1490    1.6450 hc        1 MOL     -0.026832
    161 H71         2.4910    1.2700   -0.3350 hc        1 MOL      0.040028
    162 H72         2.0850    2.7650    0.6120 hc        1 MOL      0.040028
    163 N14         5.4930   -0.4060    2.4580 n         1 MOL      0.091097
    164 C55         6.2880   -1.3300    3.2580 c3        1 MOL     -0.252565
    165 H73         6.6010   -2.1700    2.6380 h1        1 MOL      0.083756
    166 H74         7.1690   -0.8150    3.6410 h1        1 MOL      0.083756
    167 H75         5.6900   -1.6980    4.0910 h1        1 MOL      0.083756
    168 H76         5.3020   -0.6480    1.4920 hn        1 MOL     -0.032990
    169 Ca1        -2.2120   -0.0320   -0.1390 Ca        1 MOL      1.683981
    170 O24        -1.7160    0.0220    2.8460 oh        1 MOL     -0.823913
    171 H77        -0.9240    0.2900    2.3580 ho        1 MOL      0.400197
    172 H78        -1.5530    0.3250    3.7400 ho        1 MOL      0.400197
    173 O25        -4.0970   -0.7710    1.5830 oh        1 MOL     -0.823913
    174 H79        -4.8840   -0.4650    2.0250 ho        1 MOL      0.400197
    175 H80        -3.4850   -0.9640    2.2880 ho        1 MOL      0.400197
@<TRIPOS>BOND
     1    1    2 1   
     2    1    4 1   
     3    1    5 1   
     4    1    6 1   
     5    2    3 2   
     6    2    7 1   
     7    7    8 1   
     8    7   15 1   
     9    8    9 1   
    10    8   11 1   
    11    8   16 1   
    12    9   10 2   
    13    9   19 1   
    14   11   12 1   
    15   11   17 1   
    16   11   18 1   
    17   12   13 1   
    18   12   14 1   
    19   19   20 1   
    20   19   24 1   
    21   20   21 1   
    22   20   23 1   
    23   20   25 1   
    24   21   22 2   
    25   21   29 1   
    26   23   26 1   
    27   23   27 1   
    28   23   28 1   
    29   29   30 1   
    30   29   37 1   
    31   30   31 1   
    32   30   33 1   
    33   30   38 1   
    34   31   32 2   
    35   31   41 1   
    36   33   34 1   
    37   33   39 1   
    38   33   40 1   
    39   34   35 1   
    40   34   36 1   
    41   41   42 1   
    42   41   45 1   
    43   42   43 1   
    44   42   46 1   
    45   42   47 1   
    46   43   44 2   
    47   43   48 1   
    48   48   49 1   
    49   48   56 1   
    50   49   50 1   
    51   49   52 1   
    52   49   57 1   
    53   50   51 2   
    54   50   62 1   
    55   52   53 1   
    56   52   58 1   
    57   52   59 1   
    58   53   54 1   
    59   53   55 2   
    60   54   60 1   
    61   54   61 1   
    62   62   63 1   
    63   62   66 1   
    64   63   64 1   
    65   63   67 1   
    66   63   68 1   
    67   64   65 2   
    68   64   69 1   
    69   69   70 1   
    70   69   76 1   
    71   70   71 1   
    72   70   73 1   
    73   70   77 1   
    74   71   72 2   
    75   71   83 1   
    76   73   74 1   
    77   73   75 1   
    78   73   78 1   
    79   74   80 1   
    80   74   81 1   
    81   74   82 1   
    82   75   79 1   
    83   83   84 1   
    84   83   91 1   
    85   84   85 1   
    86   84   87 1   
    87   84   92 1   
    88   85   86 2   
    89   85  102 1   
    90   87   88 1   
    91   87   89 1   
    92   87   93 1   
    93   88   90 1   
    94   88   94 1   
    95   88   95 1   
    96   89   96 1   
    97   89   97 1   
    98   89   98 1   
    99   90   99 1   
   100   90  100 1   
   101   90  101 1   
   102  102  103 1   
   103  102  110 1   
   104  103  104 1   
   105  103  106 1   
   106  103  111 1   
   107  104  105 2   
   108  104  114 1   
   109  106  107 1   
   110  106  112 1   
   111  106  113 1   
   112  107  108 1   
   113  107  109 1   
   114  114  115 1   
   115  114  125 1   
   116  115  116 1   
   117  115  118 1   
   118  115  126 1   
   119  116  117 2   
   120  116  134 1   
   121  118  119 1   
   122  118  127 1   
   123  118  128 1   
   124  119  120 ar  
   125  119  121 ar  
   126  120  122 ar  
   127  120  129 1   
   128  121  123 ar  
   129  121  130 1   
   130  122  124 ar  
   131  122  131 1   
   132  123  124 ar  
   133  123  132 1   
   134  124  133 1   
   135  134  135 1   
   136  134  140 1   
   137  135  136 1   
   138  135  138 1   
   139  135  141 1   
   140  136  137 2   
   141  136  148 1   
   142  138  139 1   
   143  138  142 1   
   144  138  143 1   
   145  139  140 1   
   146  139  144 1   
   147  139  145 1   
   148  140  146 1   
   149  140  147 1   
   150  148  149 1   
   151  148  157 1   
   152  149  150 1   
   153  149  152 1   
   154  149  158 1   
   155  150  151 2   
   156  150  163 1   
   157  152  153 1   
   158  152  159 1   
   159  152  160 1   
   160  153  154 1   
   161  153  161 1   
   162  153  162 1   
   163  154  155 1   
   164  154  156 1   
   165  163  164 1   
   166  163  168 1   
   167  164  165 1   
   168  164  166 1   
   169  164  167 1   
   170  170  171 1   
   171  170  172 1   
   172  173  174 1   
   173  173  175 1   
@<TRIPOS>SUBSTRUCTURE
     1 MOL         1 TEMP              0 ****  ****    0 ROOT
