@<TRIPOS>MOLECULE
MOL
  172   171     1     0     0
SMALL
resp


@<TRIPOS>ATOM
      1 C1         -0.1150   -2.4230    5.9630 c3        1 MOL     -0.390841
      2 C2          0.4200   -2.4200    4.5010 c         1 MOL      0.759812
      3 O1         -0.2370   -2.9630    3.6380 o         1 MOL     -0.589524
      4 H1         -1.1960   -2.2880    5.9540 hc        1 MOL      0.090990
      5 H2          0.1280   -3.3740    6.4370 hc        1 MOL      0.090990
      6 H3          0.3480   -1.6090    6.5210 hc        1 MOL      0.090990
      7 N1          1.6300   -1.8680    4.3490 n         1 MOL     -0.716883
      8 C3          2.2700   -1.8460    3.0120 c3        1 MOL      0.393568
      9 C4          2.6200   -3.2440    2.3620 c         1 MOL      0.430367
     10 O2          3.4470   -4.0430    2.7850 o         1 MOL     -0.592511
     11 C5          3.5910   -1.0330    3.1300 c3        1 MOL     -0.161283
     12 C6          4.1500   -0.6600    1.7900 c         1 MOL      0.853135
     13 O3          5.2570   -0.1570    1.6680 o         1 MOL     -0.783255
     14 O4          3.4930   -0.9310    0.7770 o         1 MOL     -0.783255
     15 H4          2.0930   -1.4840    5.1590 hn        1 MOL      0.336880
     16 H5          1.6080   -1.3150    2.3340 h1        1 MOL     -0.055172
     17 H6          4.2940   -1.5790    3.7520 hc        1 MOL      0.012598
     18 H7          3.3770   -0.0810    3.6080 hc        1 MOL      0.012598
     19 N2          1.8420   -3.6480    1.3740 n         1 MOL     -0.365209
     20 C7          1.8550   -5.0610    0.7750 c3        1 MOL      0.178244
     21 C8          2.8470   -5.2200   -0.4170 c         1 MOL      0.304047
     22 O5          2.8280   -6.2840   -1.0590 o         1 MOL     -0.531333
     23 C9          0.3650   -5.3950    0.4800 c3        1 MOL     -0.293965
     24 H8          1.2700   -2.9520    0.9080 hn        1 MOL      0.422101
     25 H9          2.2520   -5.6560    1.6020 h1        1 MOL      0.062076
     26 H10        -0.2340   -5.1480    1.3580 hc        1 MOL      0.079686
     27 H11         0.0760   -4.7670   -0.3650 hc        1 MOL      0.079686
     28 H12         0.3530   -6.4760    0.3100 hc        1 MOL      0.079686
     29 N3          3.4020   -4.1310   -0.9530 n         1 MOL     -0.161464
     30 C10         4.4840   -4.2160   -1.9890 c3        1 MOL      0.079292
     31 C11         5.7980   -3.5580   -1.5160 c         1 MOL      0.348343
     32 O6          6.8470   -3.7450   -2.1460 o         1 MOL     -0.541660
     33 C12         3.9420   -3.6510   -3.3150 c3        1 MOL     -0.168822
     34 C13         3.5260   -2.1810   -3.2670 c         1 MOL      0.766718
     35 O7          3.2730   -1.5470   -2.2220 o         1 MOL     -0.715398
     36 O8          3.2130   -1.6670   -4.3880 o         1 MOL     -0.715398
     37 H13         2.9550   -3.2480   -0.7410 hn        1 MOL      0.137915
     38 H14         4.6770   -5.2710   -2.1750 h1        1 MOL      0.073860
     39 H15         3.0160   -4.2130   -3.4970 hc        1 MOL      0.043290
     40 H16         4.6740   -3.7710   -4.1070 hc        1 MOL      0.043290
     41 N4          5.8670   -2.8370   -0.4140 n         1 MOL     -0.108573
     42 C14         7.0790   -2.2900    0.2140 c3        1 MOL     -0.330223
     43 C15         7.5210   -1.0010   -0.3670 c         1 MOL      0.633111
     44 O9          8.7120   -0.7020   -0.3130 o         1 MOL     -0.624067
     45 H17         4.9640   -2.7350    0.0310 hn        1 MOL      0.117913
     46 H18         7.9060   -2.9740    0.0310 h1        1 MOL      0.147187
     47 H19         6.9220   -2.0220    1.2530 h1        1 MOL      0.147187
     48 N5          6.6000   -0.1870   -0.9060 n         1 MOL     -0.137040
     49 C16         6.8650    1.0070   -1.6530 c3        1 MOL     -0.317632
     50 C17         6.7880    2.2860   -0.8410 c         1 MOL      0.574850
     51 O10         7.0370    3.3770   -1.4040 o         1 MOL     -0.592612
     52 C18         5.9080    0.9130   -2.8760 c3        1 MOL      0.061622
     53 C19         4.5970    1.7110   -2.5890 c         1 MOL      0.427557
     54 N6          4.2820    2.5620   -3.5000 n         1 MOL     -0.622314
     55 O11         3.9430    1.5780   -1.5470 o         1 MOL     -0.544020
     56 H20         5.6280   -0.4150   -0.7210 hn        1 MOL      0.122502
     57 H21         7.8630    0.9600   -2.0970 h1        1 MOL      0.159295
     58 H22         5.6890   -0.1120   -3.1790 hc        1 MOL      0.027534
     59 H23         6.3350    1.3710   -3.7690 hc        1 MOL      0.027534
     60 H24         4.8460    2.6240   -4.3360 hn        1 MOL      0.336334
     61 H25         3.6000    3.2710   -3.2730 hn        1 MOL      0.336334
     62 N7          6.5750    2.1160    0.4410 n         1 MOL     -0.333537
     63 C20         6.5520    3.2000    1.3990 c3        1 MOL     -0.010625
     64 C21         5.2450    3.9510    1.5450 c         1 MOL      0.455126
     65 O12         5.1770    4.9470    2.3090 o         1 MOL     -0.581146
     66 H26         6.5060    1.1670    0.7890 hn        1 MOL      0.315209
     67 H27         7.3620    3.9080    1.1960 h1        1 MOL      0.075236
     68 H28         6.9000    2.8690    2.3720 h1        1 MOL      0.075236
     69 N8          4.1930    3.6380    0.7690 n         1 MOL     -0.233942
     70 C22         2.8790    4.2860    0.7170 c3        1 MOL     -0.072362
     71 C23         1.6950    3.2840    0.9520 c         1 MOL      0.758021
     72 O13         1.7940    2.0870    0.7490 o         1 MOL     -0.638526
     73 C24         2.6100    5.1290   -0.5820 c3        1 MOL      0.272961
     74 C25         3.4170    6.4830   -0.4770 c3        1 MOL     -0.402332
     75 O14         2.9880    4.5150   -1.9040 oh        1 MOL     -0.642455
     76 H29         4.2850    2.8760    0.1290 hn        1 MOL      0.228116
     77 H30         2.8140    4.9060    1.6090 h1        1 MOL      0.083227
     78 H31         1.5420    5.3420   -0.6060 h1        1 MOL      0.077480
     79 H32         3.8530    4.8190   -2.1860 ho        1 MOL      0.418775
     80 H33         3.1260    7.0750    0.4000 hc        1 MOL      0.108098
     81 H34         4.4760    6.2520   -0.5100 hc        1 MOL      0.108098
     82 H35         3.1830    7.1180   -1.3350 hc        1 MOL      0.108098
     83 N9          0.5640    3.7320    1.5220 n         1 MOL     -0.733970
     84 C26        -0.7050    2.9290    1.5400 c3        1 MOL      0.087257
     85 C27        -1.4830    3.1180    0.1930 c         1 MOL      0.464833
     86 O15        -1.8060    4.1960   -0.2840 o         1 MOL     -0.551650
     87 C28        -1.5900    3.4870    2.7860 c3        1 MOL      0.308852
     88 C29        -0.7860    3.8640    4.0300 c3        1 MOL      0.138150
     89 C30        -2.6820    2.3960    3.0150 c3        1 MOL     -0.402373
     90 C31        -1.7480    4.2300    5.1980 c3        1 MOL     -0.326156
     91 H36         0.5910    4.7040    1.7810 hn        1 MOL      0.296124
     92 H37        -0.5570    1.8810    1.8130 h1        1 MOL      0.133157
     93 H38        -2.0910    4.3990    2.4530 hc        1 MOL     -0.070931
     94 H39        -0.1640    4.7310    3.8460 hc        1 MOL     -0.023860
     95 H40        -0.1710    3.0110    4.3240 hc        1 MOL     -0.023860
     96 H41        -3.4930    2.7580    3.6470 hc        1 MOL      0.068799
     97 H42        -3.0560    2.1250    2.0230 hc        1 MOL      0.068799
     98 H43        -2.2010    1.4810    3.3880 hc        1 MOL      0.068799
     99 H44        -1.1230    4.6420    5.9950 hc        1 MOL      0.074557
    100 H45        -2.4850    4.9590    4.8680 hc        1 MOL      0.074557
    101 H46        -2.2790    3.3270    5.5050 hc        1 MOL      0.074557
    102 N10        -1.7610    1.9310   -0.4770 n         1 MOL     -0.144430
    103 C32        -2.7530    1.7520   -1.5540 c3        1 MOL      0.064523
    104 C33        -4.1750    1.3830   -1.0520 c         1 MOL      0.316089
    105 O16        -4.3150    0.9720    0.1080 o         1 MOL     -0.281756
    106 C34        -2.3560    0.6360   -2.5950 c3        1 MOL     -0.402403
    107 C35        -0.9750    0.7610   -3.1760 c         1 MOL      0.814404
    108 O17        -0.0350   -0.0660   -2.9480 o         1 MOL     -0.733581
    109 O18        -0.6930    1.8570   -3.7820 o         1 MOL     -0.733581
    110 H47        -1.5270    1.1070    0.0610 hn        1 MOL      0.178452
    111 H48        -2.9870    2.6380   -2.1470 h1        1 MOL      0.056906
    112 H49        -3.0210    0.5450   -3.4570 hc        1 MOL      0.119244
    113 H50        -2.2770   -0.2920   -2.0320 hc        1 MOL      0.119244
    114 N11        -5.2670    1.3980   -1.8280 n         1 MOL     -0.418947
    115 C36        -6.6070    1.1190   -1.3230 c3        1 MOL      0.141964
    116 C37        -6.8570   -0.2940   -0.7160 c         1 MOL      0.371893
    117 O19        -7.6220   -0.4520    0.2680 o         1 MOL     -0.475404
    118 C38        -7.5820    1.4550   -2.4470 c3        1 MOL     -0.126018
    119 C39        -9.0040    1.3880   -2.1070 ca        1 MOL      0.104256
    120 C40        -9.6690    2.2810   -1.1960 ca        1 MOL     -0.227184
    121 C41        -9.8200    0.3370   -2.6730 ca        1 MOL     -0.227184
    122 C42       -11.0340    2.0770   -0.8590 ca        1 MOL     -0.062184
    123 C43       -11.2350    0.2300   -2.3930 ca        1 MOL     -0.062184
    124 C44       -11.8220    1.1010   -1.4750 ca        1 MOL     -0.133829
    125 H51        -5.2560    1.7930   -2.7580 hn        1 MOL      0.291016
    126 H52        -6.7820    1.8900   -0.5650 h1        1 MOL      0.070860
    127 H53        -7.4220    0.8940   -3.3670 hc        1 MOL      0.059657
    128 H54        -7.3890    2.4590   -2.8240 hc        1 MOL      0.059657
    129 H55        -9.1000    3.0150   -0.6320 ha        1 MOL      0.135174
    130 H56        -9.3510   -0.3960   -3.3080 ha        1 MOL      0.135174
    131 H57       -11.4380    2.7860   -0.1430 ha        1 MOL      0.100308
    132 H58       -11.8230   -0.5670   -2.8210 ha        1 MOL      0.100308
    133 H59       -12.8710    1.0380   -1.2350 ha        1 MOL      0.102507
    134 N12        -6.3050   -1.4030   -1.2940 n         1 MOL     -0.069711
    135 C45        -6.4070   -2.7120   -0.6750 c3        1 MOL     -0.051820
    136 C46        -5.6350   -2.8680    0.6660 c         1 MOL      0.279990
    137 O20        -5.7810   -3.8220    1.4510 o         1 MOL     -0.496913
    138 C47        -5.9400   -3.7610   -1.6860 c3        1 MOL     -0.003082
    139 C48        -6.0690   -2.9260   -2.9870 c3        1 MOL      0.073832
    140 C49        -5.5160   -1.4920   -2.4960 c3        1 MOL     -0.168833
    141 H60        -7.4490   -2.9840   -0.5030 h1        1 MOL      0.089901
    142 H61        -4.8970   -4.0200   -1.4840 hc        1 MOL      0.033976
    143 H62        -6.5440   -4.6650   -1.7060 hc        1 MOL      0.033976
    144 H63        -5.5860   -3.4500   -3.8130 hc        1 MOL     -0.004229
    145 H64        -7.0990   -2.8380   -3.3110 hc        1 MOL     -0.004229
    146 H65        -4.4320   -1.4970   -2.3990 h1        1 MOL      0.069328
    147 H66        -5.7920   -0.7520   -3.2410 h1        1 MOL      0.069328
    148 N13        -4.6410   -1.9910    0.8370 n         1 MOL     -0.052298
    149 C50        -3.8170   -1.8430    2.0880 c3        1 MOL     -0.087136
    150 C51        -4.6120   -1.0510    3.0720 c         1 MOL      0.445442
    151 O21        -4.7760   -1.3670    4.2520 o         1 MOL     -0.557725
    152 C52        -2.4230   -1.2850    1.8120 c3        1 MOL      0.015457
    153 C53        -1.7850   -1.9820    0.6540 c3        1 MOL     -0.024995
    154 C54        -0.4300   -1.3750    0.2670 c         1 MOL      0.629682
    155 O22         0.3000   -1.9870   -0.5590 o         1 MOL     -0.736453
    156 O23        -0.1770   -0.1980    0.5590 o         1 MOL     -0.736453
    157 H67        -4.6490   -1.2670    0.1340 hn        1 MOL      0.123882
    158 H68        -3.7800   -2.8380    2.5200 h1        1 MOL      0.099736
    159 H69        -1.8600   -1.3530    2.7420 hc        1 MOL      0.025730
    160 H70        -2.4550   -0.2070    1.6550 hc        1 MOL      0.025730
    161 H71        -2.4500   -1.9570   -0.2050 hc        1 MOL      0.006411
    162 H72        -1.5210   -3.0330    0.8180 hc        1 MOL      0.006411
    163 N14        -5.3020   -0.0380    2.5180 n         1 MOL      0.003258
    164 C55        -6.2190    0.7360    3.3330 c3        1 MOL     -0.209739
    165 H73        -6.2120    0.3510    4.3530 h1        1 MOL      0.070697
    166 H74        -5.9090    1.7810    3.3380 h1        1 MOL      0.070697
    167 H75        -7.2260    0.6570    2.9230 h1        1 MOL      0.070697
    168 H76        -5.2250    0.1720    1.5310 hn        1 MOL      0.022144
    169 Ca1         1.8480   -0.0200   -0.9940 Ca        1 MOL      1.735734
    170 O24         1.1340    2.5270   -2.0270 oh        1 MOL     -0.849447
    171 H77         1.5760    3.3750   -2.0520 ho        1 MOL      0.398505
    172 H78         0.5440    2.5500   -2.7780 ho        1 MOL      0.398505
@<TRIPOS>BOND
     1    1    2 1   
     2    1    4 1   
     3    1    5 1   
     4    1    6 1   
     5    2    3 2   
     6    2    7 1   
     7    7    8 1   
     8    7   15 1   
     9    8    9 1   
    10    8   11 1   
    11    8   16 1   
    12    9   10 2   
    13    9   19 1   
    14   11   12 1   
    15   11   17 1   
    16   11   18 1   
    17   12   13 1   
    18   12   14 1   
    19   19   20 1   
    20   19   24 1   
    21   20   21 1   
    22   20   23 1   
    23   20   25 1   
    24   21   22 2   
    25   21   29 1   
    26   23   26 1   
    27   23   27 1   
    28   23   28 1   
    29   29   30 1   
    30   29   37 1   
    31   30   31 1   
    32   30   33 1   
    33   30   38 1   
    34   31   32 2   
    35   31   41 1   
    36   33   34 1   
    37   33   39 1   
    38   33   40 1   
    39   34   35 1   
    40   34   36 1   
    41   41   42 1   
    42   41   45 1   
    43   42   43 1   
    44   42   46 1   
    45   42   47 1   
    46   43   44 2   
    47   43   48 1   
    48   48   49 1   
    49   48   56 1   
    50   49   50 1   
    51   49   52 1   
    52   49   57 1   
    53   50   51 2   
    54   50   62 1   
    55   52   53 1   
    56   52   58 1   
    57   52   59 1   
    58   53   54 1   
    59   53   55 2   
    60   54   60 1   
    61   54   61 1   
    62   62   63 1   
    63   62   66 1   
    64   63   64 1   
    65   63   67 1   
    66   63   68 1   
    67   64   65 2   
    68   64   69 1   
    69   69   70 1   
    70   69   76 1   
    71   70   71 1   
    72   70   73 1   
    73   70   77 1   
    74   71   72 2   
    75   71   83 1   
    76   73   74 1   
    77   73   75 1   
    78   73   78 1   
    79   74   80 1   
    80   74   81 1   
    81   74   82 1   
    82   75   79 1   
    83   83   84 1   
    84   83   91 1   
    85   84   85 1   
    86   84   87 1   
    87   84   92 1   
    88   85   86 2   
    89   85  102 1   
    90   87   88 1   
    91   87   89 1   
    92   87   93 1   
    93   88   90 1   
    94   88   94 1   
    95   88   95 1   
    96   89   96 1   
    97   89   97 1   
    98   89   98 1   
    99   90   99 1   
   100   90  100 1   
   101   90  101 1   
   102  102  103 1   
   103  102  110 1   
   104  103  104 1   
   105  103  106 1   
   106  103  111 1   
   107  104  105 2   
   108  104  114 1   
   109  106  107 1   
   110  106  112 1   
   111  106  113 1   
   112  107  108 1   
   113  107  109 1   
   114  114  115 1   
   115  114  125 1   
   116  115  116 1   
   117  115  118 1   
   118  115  126 1   
   119  116  117 2   
   120  116  134 1   
   121  118  119 1   
   122  118  127 1   
   123  118  128 1   
   124  119  120 ar  
   125  119  121 ar  
   126  120  122 ar  
   127  120  129 1   
   128  121  123 ar  
   129  121  130 1   
   130  122  124 ar  
   131  122  131 1   
   132  123  124 ar  
   133  123  132 1   
   134  124  133 1   
   135  134  135 1   
   136  134  140 1   
   137  135  136 1   
   138  135  138 1   
   139  135  141 1   
   140  136  137 2   
   141  136  148 1   
   142  138  139 1   
   143  138  142 1   
   144  138  143 1   
   145  139  140 1   
   146  139  144 1   
   147  139  145 1   
   148  140  146 1   
   149  140  147 1   
   150  148  149 1   
   151  148  157 1   
   152  149  150 1   
   153  149  152 1   
   154  149  158 1   
   155  150  151 2   
   156  150  163 1   
   157  152  153 1   
   158  152  159 1   
   159  152  160 1   
   160  153  154 1   
   161  153  161 1   
   162  153  162 1   
   163  154  155 1   
   164  154  156 1   
   165  163  164 1   
   166  163  168 1   
   167  164  165 1   
   168  164  166 1   
   169  164  167 1   
   170  170  171 1   
   171  170  172 1   
@<TRIPOS>SUBSTRUCTURE
     1 MOL         1 TEMP              0 ****  ****    0 ROOT
