@<TRIPOS>MOLECULE
MOL
  189   185     1     0     0
SMALL
resp


@<TRIPOS>ATOM
      1 C1          1.4110    4.6990   -5.0630 c3        1 MOL     -0.437959
      2 C2          1.3040    3.8130   -3.7940 c         1 MOL      0.747041
      3 O1          0.2650    3.7660   -3.1730 o         1 MOL     -0.590441
      4 H1          1.6630    4.0750   -5.9210 hc        1 MOL      0.110324
      5 H2          0.4570    5.1950   -5.2420 hc        1 MOL      0.110324
      6 H3          2.1900    5.4490   -4.9200 hc        1 MOL      0.110324
      7 N1          2.4250    3.1410   -3.3910 n         1 MOL     -0.575974
      8 C3          2.5310    2.4290   -2.1600 c3        1 MOL      0.105855
      9 C4          2.8620    3.4900   -1.0850 c         1 MOL      0.327499
     10 O2          3.9420    4.1670   -1.1180 o         1 MOL     -0.509668
     11 C5          3.7000    1.4300   -2.2880 c3        1 MOL     -0.104683
     12 C6          4.0530    0.7770   -0.8880 c         1 MOL      0.741736
     13 O3          3.2470    0.7140    0.0210 o         1 MOL     -0.727315
     14 O4          5.1650    0.2010   -0.7570 o         1 MOL     -0.727315
     15 H4          3.2630    3.2790   -3.9510 hn        1 MOL      0.326860
     16 H5          1.6680    1.8020   -1.9420 h1        1 MOL     -0.004532
     17 H6          4.5860    1.8630   -2.7560 hc        1 MOL      0.036915
     18 H7          3.3730    0.6220   -2.9340 hc        1 MOL      0.036915
     19 N2          1.9070    3.6300   -0.1310 n         1 MOL     -0.093365
     20 C7          1.7710    4.6320    0.8840 c3        1 MOL     -0.069073
     21 C8          2.6630    4.4720    2.1090 c         1 MOL      0.533439
     22 O5          2.9070    5.4810    2.8440 o         1 MOL     -0.580434
     23 C9          0.2690    4.7040    1.4130 c3        1 MOL     -0.083867
     24 C10        -0.7720    4.9110    0.2770 c3        1 MOL     -0.038676
     25 C11        -0.3310    6.0230   -0.7030 c3        1 MOL     -0.175725
     26 C12        -1.5230    6.3880   -1.5840 c3        1 MOL      0.167655
     27 N3         -1.1890    7.5480   -2.4720 n4        1 MOL     -0.394751
     28 H8          1.0410    3.1170   -0.2540 hn        1 MOL      0.244725
     29 H9          2.0270    5.5990    0.4510 h1        1 MOL      0.049951
     30 H10         0.2170    5.5920    2.0400 hc        1 MOL      0.056099
     31 H11        -0.0000    3.8500    2.0280 hc        1 MOL      0.056099
     32 H12        -1.7550    5.0220    0.7220 hc        1 MOL      0.055114
     33 H13        -0.7970    4.0200   -0.3640 hc        1 MOL      0.055114
     34 H14         0.4300    5.5630   -1.3350 hc        1 MOL      0.065611
     35 H15         0.1050    6.8700   -0.1580 hc        1 MOL      0.065611
     36 H16        -2.3030    6.6320   -0.8530 hx        1 MOL      0.041816
     37 H17        -1.9230    5.5570   -2.1670 hx        1 MOL      0.041816
     38 H18        -0.5070    7.3480   -3.1770 hn        1 MOL      0.326872
     39 H19        -1.9850    7.8520   -3.0240 hn        1 MOL      0.326872
     40 H20        -0.9600    8.3340   -1.8750 hn        1 MOL      0.326872
     41 N4          3.2580    3.2970    2.3100 n         1 MOL     -0.429011
     42 C13         4.1290    2.9430    3.4130 c3        1 MOL      0.101977
     43 C14         5.3970    2.1790    2.9590 c         1 MOL      0.414720
     44 O6          6.1470    1.8330    3.8480 o         1 MOL     -0.498707
     45 C15         3.3730    2.3050    4.5350 c3        1 MOL     -0.239124
     46 C16         2.6200    1.0690    4.2260 c         1 MOL      0.823176
     47 O7          1.7970    0.5400    5.0250 o         1 MOL     -0.698479
     48 O8          2.7150    0.6200    3.0430 o         1 MOL     -0.698479
     49 H21         2.8850    2.5190    1.7750 hn        1 MOL      0.278868
     50 H22         4.5520    3.8810    3.7810 h1        1 MOL      0.089412
     51 H23         2.6200    3.0080    4.8890 hc        1 MOL      0.058867
     52 H24         4.0440    2.1270    5.3740 hc        1 MOL      0.058867
     53 N5          5.6020    1.9690    1.6630 n         1 MOL     -0.228253
     54 C17         6.9310    1.6750    1.2040 c3        1 MOL     -0.107163
     55 C18         7.4360    0.3110    1.6110 c         1 MOL      0.457329
     56 O9          8.6290    0.1730    1.7780 o         1 MOL     -0.553080
     57 H25         4.9310    2.1630    0.9300 hn        1 MOL      0.199189
     58 H26         7.5810    2.5240    1.4080 h1        1 MOL      0.088975
     59 H27         6.8570    1.6340    0.1120 h1        1 MOL      0.088975
     60 N6          6.5460   -0.6780    1.8330 n         1 MOL     -0.243182
     61 C19         6.8280   -2.0800    1.8910 c3        1 MOL     -0.036113
     62 C20         7.0680   -2.8120    0.5620 c         1 MOL      0.408891
     63 O10         7.4790   -3.9700    0.5680 o         1 MOL     -0.552440
     64 C21         5.6990   -2.8470    2.6620 c3        1 MOL     -0.108825
     65 C22         4.2980   -2.5340    2.1910 c         1 MOL      0.622829
     66 O11         4.0550   -2.4090    0.9780 o         1 MOL     -0.690176
     67 O12         3.4170   -2.2370    3.0180 o         1 MOL     -0.690176
     68 H28         5.5910   -0.4060    1.6490 hn        1 MOL      0.229746
     69 H29         7.7580   -2.2680    2.4330 h1        1 MOL      0.108501
     70 H30         5.7840   -2.5720    3.7210 hc        1 MOL      0.043852
     71 H31         6.0300   -3.8850    2.7210 hc        1 MOL      0.043852
     72 N7          6.7350   -2.1480   -0.5480 n         1 MOL     -0.165519
     73 C23         6.8350   -2.6940   -1.8970 c3        1 MOL     -0.249102
     74 C24         5.5630   -3.3250   -2.3820 c         1 MOL      0.566656
     75 O13         5.6860   -4.1160   -3.3230 o         1 MOL     -0.581642
     76 H32         6.3500   -1.2330   -0.3620 hn        1 MOL      0.225226
     77 H33         7.6320   -3.4390   -1.8430 h1        1 MOL      0.124137
     78 H34         7.1210   -1.9090   -2.5880 h1        1 MOL      0.124137
     79 N8          4.3940   -3.1950   -1.7610 n         1 MOL     -0.241674
     80 C25         3.0920   -3.6290   -2.3030 c3        1 MOL     -0.144209
     81 C26         1.9400   -2.6450   -2.1020 c         1 MOL      0.701306
     82 O14         1.9510   -1.8040   -1.2230 o         1 MOL     -0.604160
     83 C27         2.7260   -5.0560   -1.7890 c3        1 MOL      0.412969
     84 C28         3.6310   -6.1210   -2.4930 c3        1 MOL     -0.590590
     85 O15         2.8260   -5.2700   -0.3830 oh        1 MOL     -0.570983
     86 H35         4.3490   -2.6750   -0.8910 hn        1 MOL      0.213542
     87 H36         3.2100   -3.6850   -3.3750 h1        1 MOL      0.076024
     88 H37         1.7080   -5.2360   -2.1270 h1        1 MOL      0.025206
     89 H38         3.7600   -5.1100   -0.2310 ho        1 MOL      0.380294
     90 H39         3.1700   -7.0900   -2.2920 hc        1 MOL      0.158003
     91 H40         3.8000   -5.8480   -3.5360 hc        1 MOL      0.158003
     92 H41         4.6180   -6.1620   -2.0280 hc        1 MOL      0.158003
     93 N9          0.8440   -2.7370   -2.8880 n         1 MOL     -0.688846
     94 C29        -0.4000   -1.9020   -2.6210 c3        1 MOL      0.213715
     95 C30        -1.4610   -2.8420   -2.0360 c         1 MOL      0.561785
     96 O16        -1.7210   -3.9030   -2.6310 o         1 MOL     -0.568500
     97 C31        -0.8210   -1.1060   -3.8650 c3        1 MOL     -0.042053
     98 C32         0.1480    0.0560   -4.1160 c3        1 MOL      0.185722
     99 C33        -2.2410   -0.5840   -4.0860 c3        1 MOL     -0.189556
    100 C34         0.3620    0.4190   -5.5990 c3        1 MOL     -0.288955
    101 H42         0.9300   -3.3400   -3.6960 hn        1 MOL      0.322597
    102 H43        -0.1740   -1.1190   -1.9050 h1        1 MOL      0.031121
    103 H44        -0.6300   -1.7840   -4.6920 hc        1 MOL      0.045177
    104 H45         1.1460   -0.1970   -3.7500 hc        1 MOL      0.002840
    105 H46        -0.1510    0.9440   -3.5690 hc        1 MOL      0.002840
    106 H47        -2.2610   -0.1450   -5.0820 hc        1 MOL      0.050771
    107 H48        -2.9400   -1.4120   -3.9990 hc        1 MOL      0.050771
    108 H49        -2.4560    0.0480   -3.2220 hc        1 MOL      0.050771
    109 H50        -0.5090    1.0270   -5.8770 hc        1 MOL      0.062563
    110 H51         1.2510    1.0460   -5.7040 hc        1 MOL      0.062563
    111 H52         0.4120   -0.3920   -6.3210 hc        1 MOL      0.062563
    112 N10        -2.1590   -2.4170   -0.9840 n         1 MOL     -0.311201
    113 C35        -3.3470   -3.0450   -0.4380 c3        1 MOL      0.003345
    114 C36        -4.6450   -2.3990   -0.9790 c         1 MOL      0.538181
    115 O17        -4.6810   -1.5180   -1.8470 o         1 MOL     -0.403490
    116 C37        -3.3580   -3.1240    1.1070 c3        1 MOL      0.101423
    117 C38        -2.2590   -4.0160    1.7520 c3        1 MOL     -0.249062
    118 O18        -3.1830   -1.8570    1.6560 oh        1 MOL     -0.622657
    119 H53        -1.9540   -1.4830   -0.6630 hn        1 MOL      0.109496
    120 H54        -3.4320   -4.0570   -0.8510 h1        1 MOL      0.087423
    121 H55        -4.2790   -3.6120    1.4150 h1        1 MOL      0.064523
    122 H56        -2.2610   -1.6230    1.5500 ho        1 MOL      0.455716
    123 H57        -2.4490   -5.0830    1.6740 hc        1 MOL      0.083355
    124 H58        -1.2700   -3.7980    1.3660 hc        1 MOL      0.083355
    125 H59        -2.0560   -3.9300    2.8270 hc        1 MOL      0.083355
    126 N11        -5.7790   -2.9280   -0.4820 n         1 MOL     -0.486300
    127 C39        -7.1310   -2.4280   -0.8960 c3        1 MOL     -0.066747
    128 C40        -7.2470   -0.9220   -0.5560 c         1 MOL      0.182732
    129 O19        -7.4790   -0.2110   -1.4490 o         1 MOL     -0.380146
    130 C41        -8.2690   -3.0890   -0.2040 c3        1 MOL      0.621344
    131 C42        -9.6430   -2.6800   -0.6690 c3        1 MOL     -0.494379
    132 O20        -8.1640   -4.4930   -0.1650 oh        1 MOL     -0.640124
    133 H60        -5.7370   -3.6710    0.2050 hn        1 MOL      0.233561
    134 H61        -7.3130   -2.6100   -1.9580 h1        1 MOL      0.136671
    135 H62        -8.3170   -2.8440    0.8550 h1        1 MOL     -0.121512
    136 H63        -7.6510   -4.7340    0.6140 ho        1 MOL      0.381393
    137 H64       -10.4150   -3.2880   -0.2000 hc        1 MOL      0.136899
    138 H65        -9.8250   -1.6180   -0.5120 hc        1 MOL      0.136899
    139 H66        -9.6590   -2.8090   -1.7490 hc        1 MOL      0.136899
    140 N12        -7.0960   -0.4810    0.6700 n         1 MOL     -0.246223
    141 C43        -7.1520    0.9820    1.0780 c3        1 MOL      0.004202
    142 C44        -6.2560    1.9370    0.3710 c         1 MOL      0.436501
    143 O21        -6.6880    3.0360    0.1050 o         1 MOL     -0.512915
    144 C45        -7.0190    1.0450    2.5800 c3        1 MOL     -0.138189
    145 C46        -8.1920    0.3530    3.2280 c3        1 MOL     -0.075232
    146 C47        -8.0200    0.2880    4.7120 c3        1 MOL      0.107979
    147 C48        -8.5350   -0.9560    5.4060 c3        1 MOL     -0.034394
    148 N13        -8.1710   -1.0520    6.8520 n4        1 MOL     -0.204432
    149 H67        -7.0260   -1.1260    1.4350 hn        1 MOL      0.277737
    150 H68        -8.1580    1.1870    0.7250 h1        1 MOL      0.108534
    151 H69        -7.0200    2.0890    2.8840 hc        1 MOL      0.079884
    152 H70        -6.0820    0.5630    2.8740 hc        1 MOL      0.079884
    153 H71        -8.2550   -0.6830    2.8930 hc        1 MOL      0.038223
    154 H72        -9.1180    0.8920    3.0310 hc        1 MOL      0.038223
    155 H73        -8.4240    1.1970    5.1760 hc        1 MOL      0.015503
    156 H74        -6.9700    0.3040    5.0180 hc        1 MOL      0.015503
    157 H75        -8.0790   -1.8240    4.9350 hx        1 MOL      0.073958
    158 H76        -9.6280   -0.9590    5.4180 hx        1 MOL      0.073958
    159 H77        -8.3210   -0.1730    7.3300 hn        1 MOL      0.258994
    160 H78        -8.6560   -1.8040    7.3230 hn        1 MOL      0.258994
    161 H79        -7.2070   -1.3340    6.9330 hn        1 MOL      0.258994
    162 N14        -5.0510    1.4950    0.0890 n         1 MOL     -0.246203
    163 C49        -3.9670    2.1320   -0.7310 c3        1 MOL     -0.050619
    164 C50        -4.3700    2.3980   -2.2000 c         1 MOL      0.386343
    165 O22        -3.7520    3.1750   -2.8760 o         1 MOL     -0.509108
    166 C51        -2.7010    1.2440   -0.6880 c3        1 MOL     -0.064387
    167 C52        -2.1000    1.2040    0.7390 c3        1 MOL      0.108716
    168 C53        -0.7630    0.5120    0.7810 c         1 MOL      0.707935
    169 O23         0.2680    1.1610    1.0680 o         1 MOL     -0.742036
    170 O24        -0.7360   -0.6900    0.6340 o         1 MOL     -0.742036
    171 H80        -4.9460    0.5180    0.3290 hn        1 MOL      0.170555
    172 H81        -3.6420    3.0720   -0.2950 h1        1 MOL      0.086904
    173 H82        -1.8830    1.6410   -1.2930 hc        1 MOL      0.067987
    174 H83        -2.8910    0.2150   -0.9870 hc        1 MOL      0.067987
    175 H84        -2.8010    0.7260    1.4190 hc        1 MOL     -0.054996
    176 H85        -2.0210    2.2240    1.1230 hc        1 MOL     -0.054996
    177 N15        -5.2480    1.5340   -2.7570 n         1 MOL     -0.146390
    178 C54        -5.3980    1.4310   -4.2420 c3        1 MOL     -0.137077
    179 H86        -4.6340    0.7630   -4.6400 h1        1 MOL      0.079639
    180 H87        -6.3850    1.0350   -4.4810 h1        1 MOL      0.079639
    181 H88        -5.2850    2.4190   -4.6890 h1        1 MOL      0.079639
    182 H89        -5.7540    0.9240   -2.1360 hn        1 MOL      0.145348
    183 Ca1         1.8630   -0.9930    1.2570 Ca        1 MOL      1.781492
    184 O25         1.3340   -3.5910    1.0980 oh        1 MOL     -0.856467
    185 H90         1.0950   -4.1170    1.8610 ho        1 MOL      0.394987
    186 H91         2.0500   -4.0760    0.6910 ho        1 MOL      0.394987
    187 O26         0.3050   -1.3500    3.6950 oh        1 MOL     -0.856467
    188 H92         0.9200   -0.9020    4.2750 ho        1 MOL      0.394987
    189 H93        -0.5290   -1.3400    4.1660 ho        1 MOL      0.394987
@<TRIPOS>BOND
     1    1    2 1   
     2    1    4 1   
     3    1    5 1   
     4    1    6 1   
     5    2    3 2   
     6    2    7 1   
     7    7    8 1   
     8    7   15 1   
     9    8    9 1   
    10    8   11 1   
    11    8   16 1   
    12    9   10 2   
    13    9   19 1   
    14   11   12 1   
    15   11   17 1   
    16   11   18 1   
    17   12   13 1   
    18   12   14 1   
    19   19   20 1   
    20   19   28 1   
    21   20   21 1   
    22   20   23 1   
    23   20   29 1   
    24   21   22 2   
    25   21   41 1   
    26   23   24 1   
    27   23   30 1   
    28   23   31 1   
    29   24   25 1   
    30   24   32 1   
    31   24   33 1   
    32   25   26 1   
    33   25   34 1   
    34   25   35 1   
    35   26   27 1   
    36   26   36 1   
    37   26   37 1   
    38   27   38 1   
    39   27   39 1   
    40   27   40 1   
    41   41   42 1   
    42   41   49 1   
    43   42   43 1   
    44   42   45 1   
    45   42   50 1   
    46   43   44 2   
    47   43   53 1   
    48   45   46 1   
    49   45   51 1   
    50   45   52 1   
    51   46   47 1   
    52   46   48 1   
    53   53   54 1   
    54   53   57 1   
    55   54   55 1   
    56   54   58 1   
    57   54   59 1   
    58   55   56 2   
    59   55   60 1   
    60   60   61 1   
    61   60   68 1   
    62   61   62 1   
    63   61   64 1   
    64   61   69 1   
    65   62   63 2   
    66   62   72 1   
    67   64   65 1   
    68   64   70 1   
    69   64   71 1   
    70   65   66 1   
    71   65   67 1   
    72   72   73 1   
    73   72   76 1   
    74   73   74 1   
    75   73   77 1   
    76   73   78 1   
    77   74   75 2   
    78   74   79 1   
    79   79   80 1   
    80   79   86 1   
    81   80   81 1   
    82   80   83 1   
    83   80   87 1   
    84   81   82 2   
    85   81   93 1   
    86   83   84 1   
    87   83   85 1   
    88   83   88 1   
    89   84   90 1   
    90   84   91 1   
    91   84   92 1   
    92   85   89 1   
    93   93   94 1   
    94   93  101 1   
    95   94   95 1   
    96   94   97 1   
    97   94  102 1   
    98   95   96 2   
    99   95  112 1   
   100   97   98 1   
   101   97   99 1   
   102   97  103 1   
   103   98  100 1   
   104   98  104 1   
   105   98  105 1   
   106   99  106 1   
   107   99  107 1   
   108   99  108 1   
   109  100  109 1   
   110  100  110 1   
   111  100  111 1   
   112  112  113 1   
   113  112  119 1   
   114  113  114 1   
   115  113  116 1   
   116  113  120 1   
   117  114  115 2   
   118  114  126 1   
   119  116  117 1   
   120  116  118 1   
   121  116  121 1   
   122  117  123 1   
   123  117  124 1   
   124  117  125 1   
   125  118  122 1   
   126  126  127 1   
   127  126  133 1   
   128  127  128 1   
   129  127  130 1   
   130  127  134 1   
   131  128  129 2   
   132  128  140 1   
   133  130  131 1   
   134  130  132 1   
   135  130  135 1   
   136  131  137 1   
   137  131  138 1   
   138  131  139 1   
   139  132  136 1   
   140  140  141 1   
   141  140  149 1   
   142  141  142 1   
   143  141  144 1   
   144  141  150 1   
   145  142  143 2   
   146  142  162 1   
   147  144  145 1   
   148  144  151 1   
   149  144  152 1   
   150  145  146 1   
   151  145  153 1   
   152  145  154 1   
   153  146  147 1   
   154  146  155 1   
   155  146  156 1   
   156  147  148 1   
   157  147  157 1   
   158  147  158 1   
   159  148  159 1   
   160  148  160 1   
   161  148  161 1   
   162  162  163 1   
   163  162  171 1   
   164  163  164 1   
   165  163  166 1   
   166  163  172 1   
   167  164  165 2   
   168  164  177 1   
   169  166  167 1   
   170  166  173 1   
   171  166  174 1   
   172  167  168 1   
   173  167  175 1   
   174  167  176 1   
   175  168  169 1   
   176  168  170 1   
   177  177  178 1   
   178  177  182 1   
   179  178  179 1   
   180  178  180 1   
   181  178  181 1   
   182  184  185 1   
   183  184  186 1   
   184  187  188 1   
   185  187  189 1   
@<TRIPOS>SUBSTRUCTURE
     1 MOL         1 TEMP              0 ****  ****    0 ROOT
