@<TRIPOS>MOLECULE
MOL
  179   176     1     0     0
SMALL
resp


@<TRIPOS>ATOM
      1 C1         -2.1460   -3.1530    6.4220 c3        1 MOL     -0.434257
      2 C2         -2.1080   -2.6320    5.0330 c         1 MOL      0.792614
      3 O1         -3.1440   -2.3140    4.5290 o         1 MOL     -0.568421
      4 H1         -2.9630   -3.8670    6.5190 hc        1 MOL      0.101747
      5 H2         -1.2020   -3.6470    6.6510 hc        1 MOL      0.101747
      6 H3         -2.3020   -2.3270    7.1160 hc        1 MOL      0.101747
      7 N1         -0.9210   -2.6730    4.4420 n         1 MOL     -0.550012
      8 C3         -0.7510   -2.5380    2.9870 c3        1 MOL     -0.113375
      9 C4         -1.1510   -3.8350    2.2640 c         1 MOL      0.622827
     10 O2         -0.9360   -4.8960    2.8020 o         1 MOL     -0.518988
     11 C5          0.7250   -2.1840    2.7430 c3        1 MOL      0.118946
     12 C6          1.0070   -1.6330    1.3190 c         1 MOL      0.644907
     13 O3          0.0770   -1.3740    0.4990 o         1 MOL     -0.763016
     14 O4          2.1750   -1.3250    1.0310 o         1 MOL     -0.763016
     15 H4         -0.0910   -2.9040    4.9690 hn        1 MOL      0.310339
     16 H5         -1.3770   -1.7000    2.6900 h1        1 MOL      0.052485
     17 H6          1.2230   -3.1480    2.7830 hc        1 MOL     -0.008595
     18 H7          1.1010   -1.4660    3.4790 hc        1 MOL     -0.008595
     19 N2         -1.5330   -3.7390    0.9890 n         1 MOL     -0.435079
     20 C7         -1.7180   -4.9170    0.1570 c3        1 MOL      0.065090
     21 C8         -0.4070   -5.5830   -0.1920 c         1 MOL      0.460421
     22 O5         -0.3820   -6.8000   -0.1180 o         1 MOL     -0.554416
     23 C9         -2.5440   -4.5430   -1.0770 c3        1 MOL     -0.222918
     24 C10        -3.9990   -4.0730   -0.8100 c3        1 MOL      0.265529
     25 C11        -4.7750   -3.7130   -2.0970 c3        1 MOL     -0.243563
     26 C12        -5.5690   -4.8620   -2.7850 c3        1 MOL      0.023635
     27 N3         -4.7760   -5.9180   -3.4560 n4        1 MOL     -0.316905
     28 H8         -1.5870   -2.8160    0.6010 hn        1 MOL      0.268602
     29 H9         -2.3250   -5.6490    0.7010 h1        1 MOL      0.071290
     30 H10        -2.5310   -5.4030   -1.7470 hc        1 MOL      0.034160
     31 H11        -2.0180   -3.6800   -1.4810 hc        1 MOL      0.034160
     32 H12        -3.9660   -3.2150   -0.1360 hc        1 MOL     -0.017532
     33 H13        -4.5690   -4.8910   -0.3640 hc        1 MOL     -0.017532
     34 H14        -4.1510   -3.2300   -2.8530 hc        1 MOL      0.110136
     35 H15        -5.5650   -3.0030   -1.8530 hc        1 MOL      0.110136
     36 H16        -6.3350   -4.5490   -3.4860 hx        1 MOL      0.097449
     37 H17        -6.1100   -5.4060   -2.0120 hx        1 MOL      0.097449
     38 H18        -5.3420   -6.6850   -3.8040 hn        1 MOL      0.313642
     39 H19        -4.1740   -5.5930   -4.2040 hn        1 MOL      0.313642
     40 H20        -4.0440   -6.2800   -2.8640 hn        1 MOL      0.313642
     41 N4          0.6810   -4.8550   -0.4640 n         1 MOL     -0.159895
     42 C13         1.9250   -5.5390   -0.7950 c3        1 MOL     -0.000420
     43 C14         3.1040   -5.2130    0.0430 c         1 MOL      0.309438
     44 O6          4.3040   -5.5850   -0.2600 o         1 MOL     -0.502320
     45 C15         2.3050   -5.2850   -2.2850 c3        1 MOL     -0.194156
     46 C16         2.1590   -3.8530   -2.7610 c         1 MOL      0.743667
     47 O7          1.9040   -3.5800   -3.9700 o         1 MOL     -0.726221
     48 O8          2.1840   -2.9500   -1.9150 o         1 MOL     -0.726221
     49 H21         0.6140   -3.8490   -0.5130 hn        1 MOL      0.164521
     50 H22         1.6930   -6.6060   -0.8370 h1        1 MOL      0.128485
     51 H23         1.5860   -5.8470   -2.8820 hc        1 MOL      0.057789
     52 H24         3.3170   -5.6270   -2.4710 hc        1 MOL      0.057789
     53 N5          2.9590   -4.3790    1.0540 n         1 MOL     -0.062388
     54 C17         4.1070   -4.0120    1.9870 c3        1 MOL     -0.177363
     55 C18         5.2040   -3.2380    1.2900 c         1 MOL      0.640698
     56 O9          6.3890   -3.2030    1.6560 o         1 MOL     -0.613550
     57 H25         2.0530   -4.0420    1.3880 hn        1 MOL      0.098764
     58 H26         4.5720   -4.9410    2.3370 h1        1 MOL      0.097950
     59 H27         3.8100   -3.4590    2.8740 h1        1 MOL      0.097950
     60 N6          4.9520   -2.5220    0.1730 n         1 MOL     -0.379356
     61 C19         6.0180   -1.9900   -0.7490 c3        1 MOL      0.026999
     62 C20         6.5680   -0.6630   -0.3850 c         1 MOL      0.347223
     63 O10         7.2870   -0.0440   -1.2150 o         1 MOL     -0.504851
     64 C21         5.5200   -1.9910   -2.2090 c3        1 MOL     -0.368911
     65 C22         4.6690   -0.8620   -2.6560 c         1 MOL      0.732935
     66 N7          4.9020   -0.3880   -3.8120 n         1 MOL     -0.722515
     67 O11         3.8370   -0.3570   -1.9260 o         1 MOL     -0.603721
     68 H28         3.9770   -2.5640   -0.0900 hn        1 MOL      0.267404
     69 H29         6.7600   -2.7950   -0.6990 h1        1 MOL      0.154907
     70 H30         4.9700   -2.8990   -2.4830 hc        1 MOL      0.130422
     71 H31         6.3440   -1.8980   -2.9180 hc        1 MOL      0.130422
     72 H32         5.6580   -0.7620   -4.3800 hn        1 MOL      0.339349
     73 H33         4.1370    0.0590   -4.2850 hn        1 MOL      0.339349
     74 N8          6.4080   -0.1940    0.8600 n         1 MOL     -0.114578
     75 C23         6.8500    1.0970    1.4420 c3        1 MOL     -0.311842
     76 C24         5.8460    2.2840    1.4620 c         1 MOL      0.591765
     77 O12         6.1980    3.2760    2.0300 o         1 MOL     -0.514476
     78 H34         5.9930   -0.8910    1.4520 hn        1 MOL      0.217173
     79 H35         7.6500    1.5110    0.8310 h1        1 MOL      0.136543
     80 H36         7.0980    0.9830    2.4970 h1        1 MOL      0.136543
     81 N9          4.6590    2.0760    1.0040 n         1 MOL     -0.348191
     82 C25         3.6370    3.0840    1.0080 c3        1 MOL      0.144156
     83 C26         2.2140    2.4380    1.0270 c         1 MOL      0.470539
     84 O13         2.0040    1.4540    0.3570 o         1 MOL     -0.487968
     85 C27         3.7400    4.0810   -0.2360 c3        1 MOL      0.005558
     86 C28         5.0550    4.7050   -0.3440 ca        1 MOL     -0.074177
     87 C29         5.3310    5.8850    0.3920 ca        1 MOL     -0.122058
     88 C30         6.0670    4.2680   -1.1950 ca        1 MOL     -0.122058
     89 C31         6.4660    6.6700    0.2040 ca        1 MOL     -0.165240
     90 C32         7.2660    4.9390   -1.3500 ca        1 MOL     -0.165240
     91 C33         7.4850    6.1940   -0.6960 ca        1 MOL      0.183137
     92 O14         8.7130    6.8280   -0.7250 oh        1 MOL     -0.431332
     93 H37         4.4030    1.1810    0.6300 hn        1 MOL      0.194060
     94 H38         3.7010    3.6770    1.9140 h1        1 MOL      0.025625
     95 H39         2.9800    4.8400   -0.0750 hc        1 MOL      0.037846
     96 H40         3.4960    3.5870   -1.1850 hc        1 MOL      0.037846
     97 H41         4.4740    6.1930    0.9790 ha        1 MOL      0.113872
     98 H42         5.9610    3.3960   -1.8230 ha        1 MOL      0.113872
     99 H43         6.5950    7.6690    0.5890 ha        1 MOL      0.125120
    100 H44         8.0490    4.5040   -1.9620 ha        1 MOL      0.125120
    101 H45         9.2950    6.3530   -1.3260 ho        1 MOL      0.344757
    102 N10         1.2430    3.0980    1.7030 n         1 MOL     -0.616545
    103 C34        -0.1560    2.7810    1.7920 c3        1 MOL      0.146636
    104 C35        -0.9420    3.8520    1.0470 c         1 MOL      0.570961
    105 O15        -0.7450    5.0060    1.3180 o         1 MOL     -0.583546
    106 C36        -0.3950    2.5970    3.3100 c3        1 MOL      0.106863
    107 C37         0.3200    1.3860    3.9010 c3        1 MOL      0.221656
    108 C38        -1.9130    2.6200    3.6160 c3        1 MOL     -0.246652
    109 C39        -0.0740    1.0270    5.3760 c3        1 MOL     -0.463619
    110 H46         1.5450    3.9180    2.2120 hn        1 MOL      0.333327
    111 H47        -0.4260    1.8100    1.3590 h1        1 MOL      0.007759
    112 H48         0.0130    3.5080    3.7630 hc        1 MOL     -0.015419
    113 H49         1.4040    1.5270    3.9070 hc        1 MOL      0.000640
    114 H50         0.0030    0.5180    3.3250 hc        1 MOL      0.000640
    115 H51        -2.3020    1.5970    3.5900 hc        1 MOL      0.049984
    116 H52        -2.0240    2.9740    4.6460 hc        1 MOL      0.049984
    117 H53        -2.5560    3.1850    2.9400 hc        1 MOL      0.049984
    118 H54        -0.2010    1.9520    5.9340 hc        1 MOL      0.110898
    119 H55        -1.0690    0.5830    5.3640 hc        1 MOL      0.110898
    120 H56         0.6510    0.3560    5.8550 hc        1 MOL      0.110898
    121 N11        -1.8260    3.4840    0.1740 n         1 MOL     -0.316949
    122 C40        -2.7100    4.2700   -0.7200 c3        1 MOL      0.034115
    123 C41        -4.1910    4.1500   -0.3480 c         1 MOL      0.391683
    124 O16        -4.5090    3.2550    0.4960 o         1 MOL     -0.397353
    125 C42        -2.5360    3.7630   -2.1470 c3        1 MOL      0.183831
    126 O17        -1.1800    3.5310   -2.4270 oh        1 MOL     -0.573109
    127 H57        -1.8500    2.4740    0.0780 hn        1 MOL      0.244652
    128 H58        -2.4670    5.3290   -0.6990 h1        1 MOL      0.087155
    129 H59        -2.8480    4.5660   -2.8200 h1        1 MOL      0.008229
    130 H60        -3.1380    2.8660   -2.2720 h1        1 MOL      0.008229
    131 H61        -0.9580    2.7160   -1.9650 ho        1 MOL      0.398081
    132 N12        -5.1400    4.9620   -0.8400 n         1 MOL     -0.448565
    133 C43        -6.5000    5.0700   -0.4450 c3        1 MOL      0.292710
    134 C44        -7.2100    3.7270   -0.7040 c         1 MOL      0.359283
    135 O18        -7.8110    3.1300    0.1620 o         1 MOL     -0.496368
    136 C45        -7.1150    6.2980   -1.0550 c3        1 MOL     -0.410500
    137 H62        -4.8660    5.6880   -1.4800 hn        1 MOL      0.265150
    138 H63        -6.5330    5.2010    0.6400 h1        1 MOL      0.054685
    139 H64        -8.1520    6.3020   -0.7380 hc        1 MOL      0.120698
    140 H65        -6.5820    7.1800   -0.6930 hc        1 MOL      0.120698
    141 H66        -7.1300    6.2790   -2.1450 hc        1 MOL      0.120698
    142 N13        -6.9500    3.1120   -1.8500 n         1 MOL     -0.261253
    143 C46        -7.4670    1.7460   -2.2370 c3        1 MOL      0.024281
    144 C47        -6.9480    0.5910   -1.4030 c         1 MOL      0.369312
    145 O19        -7.6950   -0.3780   -1.2910 o         1 MOL     -0.503003
    146 C48        -7.1520    1.4710   -3.6940 c3        1 MOL     -0.270446
    147 H67        -6.4320    3.6910   -2.4990 hn        1 MOL      0.166301
    148 H68        -8.5470    1.7300   -2.1900 h1        1 MOL      0.122531
    149 H69        -6.1210    1.2780   -3.9880 hc        1 MOL      0.083944
    150 H70        -7.6380    0.5230   -3.9540 hc        1 MOL      0.083944
    151 H71        -7.7050    2.1050   -4.3820 hc        1 MOL      0.083944
    152 N14        -5.7570    0.7620   -0.7730 n         1 MOL     -0.012400
    153 C49        -5.1270   -0.2420    0.0470 c3        1 MOL     -0.205145
    154 C50        -5.7820   -0.0650    1.4700 c         1 MOL      0.481494
    155 O20        -6.1680   -1.1310    2.0580 o         1 MOL     -0.533735
    156 C51        -3.5920   -0.0900   -0.0880 c3        1 MOL      0.175552
    157 C52        -3.1590    0.0680   -1.6150 c3        1 MOL     -0.269258
    158 C53        -1.6180    0.1280   -1.8500 c         1 MOL      0.974621
    159 O21        -0.9850   -0.6820   -2.5540 o         1 MOL     -0.794892
    160 O22        -0.9200    1.0240   -1.3430 o         1 MOL     -0.794892
    161 H72        -5.1420    1.5250   -1.0390 hn        1 MOL      0.143115
    162 H73        -5.4530   -1.2030   -0.3700 h1        1 MOL      0.088340
    163 H74        -3.1020   -1.0000    0.2620 hc        1 MOL     -0.019701
    164 H75        -3.2610    0.7220    0.5600 hc        1 MOL     -0.019701
    165 H76        -3.5930    1.0070   -1.9470 hc        1 MOL     -0.005481
    166 H77        -3.4660   -0.7660   -2.2370 hc        1 MOL     -0.005481
    167 N15        -6.0690    1.1640    1.9430 n         1 MOL     -0.139663
    168 C54        -6.8300    1.4190    3.0890 c3        1 MOL     -0.201169
    169 H78        -7.5120    0.5860    3.2640 h1        1 MOL      0.090653
    170 H79        -6.1690    1.5320    3.9480 h1        1 MOL      0.090653
    171 H80        -7.4040    2.3340    2.9490 h1        1 MOL      0.090653
    172 H81        -5.8210    1.9590    1.3750 hn        1 MOL      0.137441
    173 Ca1         1.2910   -0.4040   -1.4670 Ca        1 MOL      1.769564
    174 O23         1.5710    1.7090   -3.2590 oh        1 MOL     -0.857588
    175 H82         2.4070    2.0690   -3.5640 ho        1 MOL      0.405497
    176 H83         1.0230    1.6660   -4.0340 ho        1 MOL      0.405497
    177 O24         1.7620   -0.9810   -4.3540 oh        1 MOL     -0.857588
    178 H84         1.6130   -0.8100   -5.2860 ho        1 MOL      0.405497
    179 H85         1.8410   -1.9350   -4.3050 ho        1 MOL      0.405497
@<TRIPOS>BOND
     1    1    2 1   
     2    1    4 1   
     3    1    5 1   
     4    1    6 1   
     5    2    3 2   
     6    2    7 1   
     7    7    8 1   
     8    7   15 1   
     9    8    9 1   
    10    8   11 1   
    11    8   16 1   
    12    9   10 2   
    13    9   19 1   
    14   11   12 1   
    15   11   17 1   
    16   11   18 1   
    17   12   13 1   
    18   12   14 1   
    19   19   20 1   
    20   19   28 1   
    21   20   21 1   
    22   20   23 1   
    23   20   29 1   
    24   21   22 2   
    25   21   41 1   
    26   23   24 1   
    27   23   30 1   
    28   23   31 1   
    29   24   25 1   
    30   24   32 1   
    31   24   33 1   
    32   25   26 1   
    33   25   34 1   
    34   25   35 1   
    35   26   27 1   
    36   26   36 1   
    37   26   37 1   
    38   27   38 1   
    39   27   39 1   
    40   27   40 1   
    41   41   42 1   
    42   41   49 1   
    43   42   43 1   
    44   42   45 1   
    45   42   50 1   
    46   43   44 2   
    47   43   53 1   
    48   45   46 1   
    49   45   51 1   
    50   45   52 1   
    51   46   47 1   
    52   46   48 1   
    53   53   54 1   
    54   53   57 1   
    55   54   55 1   
    56   54   58 1   
    57   54   59 1   
    58   55   56 2   
    59   55   60 1   
    60   60   61 1   
    61   60   68 1   
    62   61   62 1   
    63   61   64 1   
    64   61   69 1   
    65   62   63 2   
    66   62   74 1   
    67   64   65 1   
    68   64   70 1   
    69   64   71 1   
    70   65   66 1   
    71   65   67 2   
    72   66   72 1   
    73   66   73 1   
    74   74   75 1   
    75   74   78 1   
    76   75   76 1   
    77   75   79 1   
    78   75   80 1   
    79   76   77 2   
    80   76   81 1   
    81   81   82 1   
    82   81   93 1   
    83   82   83 1   
    84   82   85 1   
    85   82   94 1   
    86   83   84 2   
    87   83  102 1   
    88   85   86 1   
    89   85   95 1   
    90   85   96 1   
    91   86   87 ar  
    92   86   88 ar  
    93   87   89 ar  
    94   87   97 1   
    95   88   90 ar  
    96   88   98 1   
    97   89   91 ar  
    98   89   99 1   
    99   90   91 ar  
   100   90  100 1   
   101   91   92 1   
   102   92  101 1   
   103  102  103 1   
   104  102  110 1   
   105  103  104 1   
   106  103  106 1   
   107  103  111 1   
   108  104  105 2   
   109  104  121 1   
   110  106  107 1   
   111  106  108 1   
   112  106  112 1   
   113  107  109 1   
   114  107  113 1   
   115  107  114 1   
   116  108  115 1   
   117  108  116 1   
   118  108  117 1   
   119  109  118 1   
   120  109  119 1   
   121  109  120 1   
   122  121  122 1   
   123  121  127 1   
   124  122  123 1   
   125  122  125 1   
   126  122  128 1   
   127  123  124 2   
   128  123  132 1   
   129  125  126 1   
   130  125  129 1   
   131  125  130 1   
   132  126  131 1   
   133  132  133 1   
   134  132  137 1   
   135  133  134 1   
   136  133  136 1   
   137  133  138 1   
   138  134  135 2   
   139  134  142 1   
   140  136  139 1   
   141  136  140 1   
   142  136  141 1   
   143  142  143 1   
   144  142  147 1   
   145  143  144 1   
   146  143  146 1   
   147  143  148 1   
   148  144  145 2   
   149  144  152 1   
   150  146  149 1   
   151  146  150 1   
   152  146  151 1   
   153  152  153 1   
   154  152  161 1   
   155  153  154 1   
   156  153  156 1   
   157  153  162 1   
   158  154  155 2   
   159  154  167 1   
   160  156  157 1   
   161  156  163 1   
   162  156  164 1   
   163  157  158 1   
   164  157  165 1   
   165  157  166 1   
   166  158  159 1   
   167  158  160 1   
   168  167  168 1   
   169  167  172 1   
   170  168  169 1   
   171  168  170 1   
   172  168  171 1   
   173  174  175 1   
   174  174  176 1   
   175  177  178 1   
   176  177  179 1   
@<TRIPOS>SUBSTRUCTURE
     1 MOL         1 TEMP              0 ****  ****    0 ROOT
