@<TRIPOS>MOLECULE
MOL
  189   185     1     0     0
SMALL
resp


@<TRIPOS>ATOM
      1 C1         -0.4260    0.5290    6.4380 c3        1 MOL     -0.320126
      2 C2         -0.7210    0.4420    4.9480 c         1 MOL      0.818862
      3 O1          0.2180    0.6370    4.1930 o         1 MOL     -0.635966
      4 H1         -0.7590   -0.3860    6.9280 hc        1 MOL      0.081030
      5 H2          0.6470    0.6530    6.5900 hc        1 MOL      0.081030
      6 H3         -0.9540    1.3810    6.8640 hc        1 MOL      0.081030
      7 N1         -1.9730    0.1440    4.4550 n         1 MOL     -0.725840
      8 C3         -2.3690    0.3740    3.0430 c3        1 MOL      0.192042
      9 C4         -2.6440    1.9120    2.9690 c         1 MOL      0.503162
     10 O2         -3.3950    2.4320    3.7520 o         1 MOL     -0.541609
     11 C5         -3.6100   -0.4360    2.5620 c3        1 MOL     -0.077859
     12 C6         -4.1500    0.1170    1.2550 c         1 MOL      0.547598
     13 O3         -5.3470    0.2430    1.1610 o         1 MOL     -0.569882
     14 O4         -3.3360    0.5020    0.3640 o         1 MOL     -0.569882
     15 H4         -2.6940   -0.1470    5.1020 hn        1 MOL      0.346013
     16 H5         -1.5610    0.1370    2.3500 h1        1 MOL     -0.016000
     17 H6         -4.3720   -0.5040    3.3390 hc        1 MOL      0.026116
     18 H7         -3.1960   -1.4210    2.3360 hc        1 MOL      0.026116
     19 N2         -2.0230    2.6320    1.9900 n         1 MOL     -0.211402
     20 C7         -2.1320    4.0860    1.8030 c3        1 MOL     -0.175350
     21 C8         -3.4550    4.4100    1.0220 c         1 MOL      0.452249
     22 O5         -3.9870    5.5560    1.2580 o         1 MOL     -0.576398
     23 C9         -0.9310    4.5830    1.0630 c3        1 MOL      0.004291
     24 C10        -0.6280    6.0670    1.0370 c3        1 MOL      0.061107
     25 C11         0.6760    6.2900    0.3290 c3        1 MOL     -0.106448
     26 C12         0.7880    7.8100    0.2820 c3        1 MOL      0.095698
     27 N3          2.0520    8.3210   -0.3540 n4        1 MOL     -0.299314
     28 H8         -1.4170    2.0940    1.3890 hn        1 MOL      0.152108
     29 H9         -2.1850    4.5190    2.8030 h1        1 MOL      0.104428
     30 H10        -1.0310    4.2260    0.0410 hc        1 MOL      0.052820
     31 H11        -0.0450    4.0320    1.3760 hc        1 MOL      0.052820
     32 H12        -0.5670    6.4710    2.0530 hc        1 MOL      0.014575
     33 H13        -1.5250    6.4820    0.5940 hc        1 MOL      0.014575
     34 H14         0.5670    5.9140   -0.6850 hc        1 MOL      0.050420
     35 H15         1.4530    5.8390    0.9490 hc        1 MOL      0.050420
     36 H16         0.7590    8.1470    1.3160 hx        1 MOL      0.063751
     37 H17        -0.1190    8.1230   -0.2440 hx        1 MOL      0.063751
     38 H18         2.8070    8.0160    0.2520 hn        1 MOL      0.300011
     39 H19         2.2500    7.8620   -1.2290 hn        1 MOL      0.300011
     40 H20         2.0850    9.3260   -0.4070 hn        1 MOL      0.300011
     41 N4         -3.8430    3.5680    0.0580 n         1 MOL     -0.066763
     42 C13        -4.6740    3.9060   -1.1740 c3        1 MOL     -0.151953
     43 C14        -6.1110    3.4770   -1.1250 c         1 MOL      0.495338
     44 O6         -6.8940    3.8390   -1.9970 o         1 MOL     -0.522659
     45 C15        -4.0350    3.4730   -2.5260 c3        1 MOL      0.254698
     46 C16        -2.5460    3.5520   -2.5160 c         1 MOL      0.550458
     47 O7         -1.9330    2.4900   -2.1550 o         1 MOL     -0.637507
     48 O8         -1.8840    4.5930   -2.7710 o         1 MOL     -0.637507
     49 H21        -3.3690    2.6750    0.0610 hn        1 MOL      0.093835
     50 H22        -4.6610    5.0000   -1.1190 h1        1 MOL      0.097442
     51 H23        -4.4900    4.0570   -3.3240 hc        1 MOL     -0.073451
     52 H24        -4.3690    2.4410   -2.5560 hc        1 MOL     -0.073451
     53 N5         -6.5460    2.6440   -0.1400 n         1 MOL     -0.362250
     54 C17        -7.8960    2.1190   -0.1140 c3        1 MOL     -0.095950
     55 C18        -8.1140    0.8770   -1.0220 c         1 MOL      0.368961
     56 O9         -9.3060    0.5620   -1.3370 o         1 MOL     -0.554088
     57 H25        -5.9010    2.3380    0.5870 hn        1 MOL      0.234976
     58 H26        -8.6380    2.9200   -0.1780 h1        1 MOL      0.114991
     59 H27        -8.2440    1.8070    0.8730 h1        1 MOL      0.114991
     60 N6         -7.0660    0.1650   -1.4180 n         1 MOL     -0.093080
     61 C19        -7.1420   -1.1150   -2.0320 c3        1 MOL     -0.061755
     62 C20        -7.0240   -2.3100   -1.1160 c         1 MOL      0.349864
     63 O10        -7.3370   -3.4530   -1.5250 o         1 MOL     -0.530248
     64 C21        -6.0890   -1.2020   -3.0870 c3        1 MOL     -0.159140
     65 C22        -4.6530   -1.0440   -2.5790 c         1 MOL      0.755222
     66 O11        -3.9140   -0.1010   -2.9520 o         1 MOL     -0.729722
     67 O12        -4.1970   -1.9090   -1.8170 o         1 MOL     -0.729722
     68 H28        -6.1900    0.3530   -0.9590 hn        1 MOL      0.192366
     69 H29        -8.0720   -1.1500   -2.6020 h1        1 MOL      0.131995
     70 H30        -6.2650   -0.3840   -3.7840 hc        1 MOL      0.054875
     71 H31        -6.1700   -2.0750   -3.7470 hc        1 MOL      0.054875
     72 N7         -6.5550   -2.1180    0.1160 n         1 MOL     -0.072504
     73 C23        -6.4430   -3.0540    1.1730 c3        1 MOL     -0.075525
     74 C24        -5.2210   -3.9770    1.0430 c         1 MOL      0.457020
     75 O13        -5.2760   -5.0190    1.6410 o         1 MOL     -0.584113
     76 H32        -6.2930   -1.1770    0.3830 hn        1 MOL      0.092564
     77 H33        -7.3710   -3.6140    1.3370 h1        1 MOL      0.066165
     78 H34        -6.2880   -2.4890    2.0830 h1        1 MOL      0.066165
     79 N8         -4.2850   -3.6450    0.2470 n         1 MOL     -0.026814
     80 C25        -2.9990   -4.4340    0.0940 c3        1 MOL     -0.207520
     81 C26        -1.7030   -3.5230    0.2010 c         1 MOL      0.592691
     82 O14        -1.7210   -2.3210   -0.0420 o         1 MOL     -0.526129
     83 C27        -2.8590   -5.0780   -1.2770 c3        1 MOL      0.575568
     84 C28        -4.0050   -5.9500   -1.6490 c3        1 MOL     -0.412568
     85 O15        -2.7470   -4.0950   -2.2900 oh        1 MOL     -0.731433
     86 H35        -4.4050   -2.8080   -0.3010 hn        1 MOL      0.068031
     87 H36        -2.9590   -5.2060    0.8570 h1        1 MOL      0.070820
     88 H37        -1.9970   -5.7310   -1.2160 h1        1 MOL     -0.040424
     89 H38        -3.3270   -3.3810   -2.0140 ho        1 MOL      0.462776
     90 H39        -4.9520   -5.4110   -1.6720 hc        1 MOL      0.094652
     91 H40        -3.7460   -6.3340   -2.6310 hc        1 MOL      0.094652
     92 H41        -3.9950   -6.8240   -1.0050 hc        1 MOL      0.094652
     93 N9         -0.5860   -4.1490    0.6270 n         1 MOL     -0.692266
     94 C29         0.6820   -3.4560    0.9250 c3        1 MOL      0.140052
     95 C30         1.7080   -3.7460   -0.1600 c         1 MOL      0.520337
     96 O16         1.9550   -4.9230   -0.4530 o         1 MOL     -0.572862
     97 C31         1.1880   -3.9280    2.3270 c3        1 MOL      0.073644
     98 C32         0.2410   -3.2270    3.3000 c3        1 MOL      0.066080
     99 C33         2.6780   -3.6840    2.6830 c3        1 MOL     -0.286599
    100 C34         0.4540   -3.4460    4.7700 c3        1 MOL     -0.419125
    101 H42        -0.5660   -5.1610    0.6170 hn        1 MOL      0.344620
    102 H43         0.5420   -2.3760    1.0330 h1        1 MOL      0.018641
    103 H44         1.0930   -5.0150    2.3790 hc        1 MOL      0.022068
    104 H45        -0.8280   -3.3910    3.1870 hc        1 MOL      0.045068
    105 H46         0.3580   -2.1740    3.0480 hc        1 MOL      0.045068
    106 H47         2.8570   -4.2530    3.5980 hc        1 MOL      0.066199
    107 H48         3.2540   -4.1590    1.8930 hc        1 MOL      0.066199
    108 H49         2.8100   -2.6000    2.7160 hc        1 MOL      0.066199
    109 H50         1.3230   -2.8990    5.1390 hc        1 MOL      0.104183
    110 H51        -0.4680   -3.1440    5.2740 hc        1 MOL      0.104183
    111 H52         0.7330   -4.4920    4.9510 hc        1 MOL      0.104183
    112 N10         2.3610   -2.7210   -0.6720 n         1 MOL     -0.127683
    113 C35         3.4260   -2.8300   -1.6390 c3        1 MOL     -0.133776
    114 C36         4.8380   -2.6700   -1.0230 c         1 MOL      0.405263
    115 O17         4.8680   -2.3240    0.1500 o         1 MOL     -0.376240
    116 C37         3.2250   -1.7220   -2.7210 c3        1 MOL      0.450737
    117 C38         2.1210   -1.9690   -3.7130 c3        1 MOL     -0.416800
    118 O18         3.0390   -0.4140   -2.2410 oh        1 MOL     -0.613373
    119 H53         2.0420   -1.7910   -0.4490 hn        1 MOL      0.123467
    120 H54         3.4820   -3.7700   -2.1950 h1        1 MOL      0.093012
    121 H55         4.1460   -1.6130   -3.2850 h1        1 MOL     -0.042851
    122 H56         2.1840   -0.4670   -1.8030 ho        1 MOL      0.289666
    123 H57         2.4440   -2.8110   -4.3200 hc        1 MOL      0.098367
    124 H58         1.2640   -2.3640   -3.1760 hc        1 MOL      0.098367
    125 H59         1.7870   -1.1220   -4.3330 hc        1 MOL      0.098367
    126 N11         5.9440   -2.8450   -1.8370 n         1 MOL     -0.300044
    127 C39         7.3360   -2.5530   -1.3980 c3        1 MOL     -0.048548
    128 C40         7.5150   -1.3250   -0.5260 c         1 MOL      0.248649
    129 O19         8.2290   -1.3500    0.4830 o         1 MOL     -0.457008
    130 C41         8.3780   -2.6400   -2.5690 c3        1 MOL      0.421531
    131 C42         9.7400   -3.2030   -2.0890 c3        1 MOL     -0.344746
    132 O20         7.9700   -3.5170   -3.6160 oh        1 MOL     -0.639941
    133 H60         5.8880   -3.2620   -2.7640 hn        1 MOL      0.234346
    134 H61         7.4130   -3.4150   -0.7390 h1        1 MOL      0.133126
    135 H62         8.4730   -1.6420   -3.0080 h1        1 MOL     -0.055820
    136 H63         8.5860   -3.5330   -4.3500 ho        1 MOL      0.411967
    137 H64         9.5550   -4.0110   -1.3830 hc        1 MOL      0.096270
    138 H65        10.3950   -3.4810   -2.9110 hc        1 MOL      0.096270
    139 H66        10.2970   -2.4210   -1.5630 hc        1 MOL      0.096270
    140 N12         6.9430   -0.1950   -0.9190 n         1 MOL     -0.185177
    141 C43         7.0950    1.1020   -0.2720 c3        1 MOL     -0.089035
    142 C44         6.2700    1.1540    1.0190 c         1 MOL      0.341041
    143 O21         6.5130    1.8290    1.9900 o         1 MOL     -0.511563
    144 C45         6.7010    2.2600   -1.2350 c3        1 MOL     -0.278892
    145 C46         6.9800    3.6480   -0.5830 c3        1 MOL      0.158029
    146 C47         7.1790    4.7710   -1.6180 c3        1 MOL     -0.168594
    147 C48         8.3000    4.6930   -2.6140 c3        1 MOL     -0.009824
    148 N13         9.6650    4.7790   -1.9630 n4        1 MOL     -0.316987
    149 H67         6.4100   -0.1710   -1.7790 hn        1 MOL      0.203734
    150 H68         8.1470    1.1310    0.0200 h1        1 MOL      0.134445
    151 H69         5.6250    2.2320   -1.4200 hc        1 MOL      0.114612
    152 H70         7.3040    2.1590   -2.1320 hc        1 MOL      0.114612
    153 H71         7.9820    3.5710   -0.1580 hc        1 MOL     -0.000489
    154 H72         6.1800    3.9670    0.0890 hc        1 MOL     -0.000489
    155 H73         7.4140    5.7020   -1.0970 hc        1 MOL      0.071218
    156 H74         6.2370    4.9480   -2.1430 hc        1 MOL      0.071218
    157 H75         8.2600    5.4650   -3.3770 hx        1 MOL      0.104736
    158 H76         8.2040    3.7380   -3.1180 hx        1 MOL      0.104736
    159 H77         9.6280    5.4760   -1.2380 hn        1 MOL      0.285086
    160 H78         9.9070    3.9570   -1.4230 hn        1 MOL      0.285086
    161 H79        10.4000    4.9450   -2.6310 hn        1 MOL      0.285086
    162 N14         5.1020    0.4550    1.0120 n         1 MOL      0.024692
    163 C49         4.1370    0.5510    2.1610 c3        1 MOL     -0.206815
    164 C50         4.5470   -0.4210    3.3070 c         1 MOL      0.507670
    165 O22         4.3770   -0.1220    4.5040 o         1 MOL     -0.555547
    166 C51         2.6970    0.2080    1.7860 c3        1 MOL      0.192742
    167 C52         2.1960    1.2040    0.7800 c3        1 MOL     -0.112295
    168 C53         0.8460    0.6730    0.0930 c         1 MOL      0.848022
    169 O23        -0.1680    1.4070    0.1400 o         1 MOL     -0.793803
    170 O24         0.8260   -0.2780   -0.7830 o         1 MOL     -0.793803
    171 H80         4.7460   -0.0140    0.1920 hn        1 MOL      0.117981
    172 H81         4.2010    1.5480    2.5920 h1        1 MOL      0.104518
    173 H82         2.0760    0.1110    2.6780 hc        1 MOL      0.012296
    174 H83         2.8290   -0.7690    1.3170 hc        1 MOL      0.012296
    175 H84         2.9340    1.4640    0.0240 hc        1 MOL      0.006992
    176 H85         1.9560    2.1800    1.2040 hc        1 MOL      0.006992
    177 N15         5.1880   -1.5430    2.9560 n         1 MOL     -0.110453
    178 C54         6.0000   -2.3450    3.8720 c3        1 MOL     -0.331643
    179 H86         5.6680   -3.3840    3.8360 h1        1 MOL      0.121193
    180 H87         7.0460   -2.2890    3.5750 h1        1 MOL      0.121193
    181 H88         5.8880   -1.9630    4.8860 h1        1 MOL      0.121193
    182 H89         5.2960   -1.7020    1.9610 hn        1 MOL      0.159192
    183 Ca1        -1.7810   -0.0620   -1.4950 Ca        1 MOL      1.693390
    184 O25        -1.2920   -1.7670   -3.4560 oh        1 MOL     -0.749861
    185 H90        -1.6440   -1.6100   -4.3300 ho        1 MOL      0.383019
    186 H91        -0.8180   -2.5930   -3.5330 ho        1 MOL      0.383019
    187 O26         0.0260    0.9870   -3.2690 oh        1 MOL     -0.749861
    188 H92         0.3660    1.5630   -2.5780 ho        1 MOL      0.383019
    189 H93         0.7780    0.8510   -3.8530 ho        1 MOL      0.383019
@<TRIPOS>BOND
     1    1    2 1   
     2    1    4 1   
     3    1    5 1   
     4    1    6 1   
     5    2    3 2   
     6    2    7 1   
     7    7    8 1   
     8    7   15 1   
     9    8    9 1   
    10    8   11 1   
    11    8   16 1   
    12    9   10 2   
    13    9   19 1   
    14   11   12 1   
    15   11   17 1   
    16   11   18 1   
    17   12   13 1   
    18   12   14 1   
    19   19   20 1   
    20   19   28 1   
    21   20   21 1   
    22   20   23 1   
    23   20   29 1   
    24   21   22 2   
    25   21   41 1   
    26   23   24 1   
    27   23   30 1   
    28   23   31 1   
    29   24   25 1   
    30   24   32 1   
    31   24   33 1   
    32   25   26 1   
    33   25   34 1   
    34   25   35 1   
    35   26   27 1   
    36   26   36 1   
    37   26   37 1   
    38   27   38 1   
    39   27   39 1   
    40   27   40 1   
    41   41   42 1   
    42   41   49 1   
    43   42   43 1   
    44   42   45 1   
    45   42   50 1   
    46   43   44 2   
    47   43   53 1   
    48   45   46 1   
    49   45   51 1   
    50   45   52 1   
    51   46   47 1   
    52   46   48 1   
    53   53   54 1   
    54   53   57 1   
    55   54   55 1   
    56   54   58 1   
    57   54   59 1   
    58   55   56 2   
    59   55   60 1   
    60   60   61 1   
    61   60   68 1   
    62   61   62 1   
    63   61   64 1   
    64   61   69 1   
    65   62   63 2   
    66   62   72 1   
    67   64   65 1   
    68   64   70 1   
    69   64   71 1   
    70   65   66 1   
    71   65   67 1   
    72   72   73 1   
    73   72   76 1   
    74   73   74 1   
    75   73   77 1   
    76   73   78 1   
    77   74   75 2   
    78   74   79 1   
    79   79   80 1   
    80   79   86 1   
    81   80   81 1   
    82   80   83 1   
    83   80   87 1   
    84   81   82 2   
    85   81   93 1   
    86   83   84 1   
    87   83   85 1   
    88   83   88 1   
    89   84   90 1   
    90   84   91 1   
    91   84   92 1   
    92   85   89 1   
    93   93   94 1   
    94   93  101 1   
    95   94   95 1   
    96   94   97 1   
    97   94  102 1   
    98   95   96 2   
    99   95  112 1   
   100   97   98 1   
   101   97   99 1   
   102   97  103 1   
   103   98  100 1   
   104   98  104 1   
   105   98  105 1   
   106   99  106 1   
   107   99  107 1   
   108   99  108 1   
   109  100  109 1   
   110  100  110 1   
   111  100  111 1   
   112  112  113 1   
   113  112  119 1   
   114  113  114 1   
   115  113  116 1   
   116  113  120 1   
   117  114  115 2   
   118  114  126 1   
   119  116  117 1   
   120  116  118 1   
   121  116  121 1   
   122  117  123 1   
   123  117  124 1   
   124  117  125 1   
   125  118  122 1   
   126  126  127 1   
   127  126  133 1   
   128  127  128 1   
   129  127  130 1   
   130  127  134 1   
   131  128  129 2   
   132  128  140 1   
   133  130  131 1   
   134  130  132 1   
   135  130  135 1   
   136  131  137 1   
   137  131  138 1   
   138  131  139 1   
   139  132  136 1   
   140  140  141 1   
   141  140  149 1   
   142  141  142 1   
   143  141  144 1   
   144  141  150 1   
   145  142  143 2   
   146  142  162 1   
   147  144  145 1   
   148  144  151 1   
   149  144  152 1   
   150  145  146 1   
   151  145  153 1   
   152  145  154 1   
   153  146  147 1   
   154  146  155 1   
   155  146  156 1   
   156  147  148 1   
   157  147  157 1   
   158  147  158 1   
   159  148  159 1   
   160  148  160 1   
   161  148  161 1   
   162  162  163 1   
   163  162  171 1   
   164  163  164 1   
   165  163  166 1   
   166  163  172 1   
   167  164  165 2   
   168  164  177 1   
   169  166  167 1   
   170  166  173 1   
   171  166  174 1   
   172  167  168 1   
   173  167  175 1   
   174  167  176 1   
   175  168  169 1   
   176  168  170 1   
   177  177  178 1   
   178  177  182 1   
   179  178  179 1   
   180  178  180 1   
   181  178  181 1   
   182  184  185 1   
   183  184  186 1   
   184  187  188 1   
   185  187  189 1   
@<TRIPOS>SUBSTRUCTURE
     1 MOL         1 TEMP              0 ****  ****    0 ROOT
