@<TRIPOS>MOLECULE
MOL
  186   183     1     0     0
SMALL
resp


@<TRIPOS>ATOM
      1 C1          0.8410   -2.2690    6.1470 c3        1 MOL     -0.171626
      2 C2          1.0190   -2.0670    4.6590 c         1 MOL      0.641828
      3 O1          0.1540   -2.3830    3.8400 o         1 MOL     -0.555039
      4 H1         -0.0050   -2.9320    6.3240 hc        1 MOL      0.040951
      5 H2          1.7440   -2.7130    6.5650 hc        1 MOL      0.040951
      6 H3          0.6540   -1.3070    6.6240 hc        1 MOL      0.040951
      7 N1          2.1730   -1.5030    4.2220 n         1 MOL     -0.547451
      8 C3          2.8110   -1.4650    2.9170 c3        1 MOL      0.509955
      9 C4          3.3150   -2.8080    2.4710 c         1 MOL      0.407082
     10 O2          4.4080   -3.2150    2.9080 o         1 MOL     -0.545017
     11 C5          3.9120   -0.3830    2.8390 c3        1 MOL     -0.665688
     12 C6          4.6430   -0.2280    1.4850 c         1 MOL      0.914906
     13 O3          5.8210    0.2320    1.4150 o         1 MOL     -0.647237
     14 O4          4.1000   -0.7460    0.4460 o         1 MOL     -0.647237
     15 H4          2.7470   -1.2740    5.0180 hn        1 MOL      0.276826
     16 H5          2.0820   -1.2590    2.1210 h1        1 MOL     -0.137255
     17 H6          4.6980   -0.5460    3.5780 hc        1 MOL      0.135046
     18 H7          3.3440    0.5440    2.9480 hc        1 MOL      0.135046
     19 N2          2.5200   -3.5180    1.6490 n         1 MOL     -0.360735
     20 C7          2.7860   -4.8870    1.2530 c3        1 MOL     -0.025280
     21 C8          4.0500   -5.0370    0.3650 c         1 MOL      0.519739
     22 O5          4.7540   -6.0840    0.5200 o         1 MOL     -0.573495
     23 C9          1.4990   -5.4790    0.6060 c3        1 MOL      0.180718
     24 C10         0.4060   -5.3090    1.6800 c3        1 MOL      0.100619
     25 C11         1.5740   -6.9700    0.1510 c3        1 MOL     -0.308122
     26 C12        -1.0340   -5.7360    1.2820 c3        1 MOL     -0.134967
     27 H8          1.6740   -3.0570    1.3820 hn        1 MOL      0.208658
     28 H9          3.1010   -5.4490    2.1310 h1        1 MOL      0.046679
     29 H10         1.3350   -4.8380   -0.2730 hc        1 MOL     -0.002339
     30 H11         0.3470   -4.3710    2.2330 hc        1 MOL     -0.028906
     31 H12         0.6790   -5.9920    2.4890 hc        1 MOL     -0.028906
     32 H13         0.5810   -7.2840   -0.1790 hc        1 MOL      0.070147
     33 H14         2.3300   -7.1230   -0.6190 hc        1 MOL      0.070147
     34 H15         2.0500   -7.5560    0.9330 hc        1 MOL      0.070147
     35 H16        -1.7340   -5.1130    1.8310 hc        1 MOL      0.025366
     36 H17        -1.2870   -5.3960    0.2840 hc        1 MOL      0.025366
     37 H18        -1.1190   -6.8240    1.3590 hc        1 MOL      0.025366
     38 N3          4.2660   -4.0530   -0.5250 n         1 MOL     -0.468960
     39 C13         4.9850   -4.2300   -1.7940 c3        1 MOL      0.124795
     40 C14         6.2610   -3.2800   -1.7060 c         1 MOL      0.389765
     41 O6          7.1500   -3.4160   -2.5960 o         1 MOL     -0.576881
     42 C15         4.0750   -4.1140   -3.0390 c3        1 MOL     -0.227930
     43 C16         3.1690   -2.9070   -2.9590 c         1 MOL      0.726375
     44 O7          3.2050   -2.0790   -2.0530 o         1 MOL     -0.710036
     45 O8          2.2970   -2.8720   -3.8490 o         1 MOL     -0.710036
     46 H19         3.6330   -3.2650   -0.5480 hn        1 MOL      0.383962
     47 H20         5.3450   -5.2610   -1.8070 h1        1 MOL      0.054280
     48 H21         3.4880   -5.0350   -3.0850 hc        1 MOL      0.068667
     49 H22         4.7830   -4.1010   -3.8640 hc        1 MOL      0.068667
     50 N4          6.4530   -2.4250   -0.7550 n         1 MOL     -0.173933
     51 C17         7.7460   -1.7460   -0.4350 c3        1 MOL     -0.200576
     52 C18         8.0560   -0.4870   -1.2330 c         1 MOL      0.574507
     53 O9          9.2280   -0.1350   -1.3560 o         1 MOL     -0.611757
     54 H23         5.6610   -2.1460   -0.1880 hn        1 MOL      0.176050
     55 H24         8.5830   -2.4280   -0.5400 h1        1 MOL      0.115737
     56 H25         7.7040   -1.4810    0.6280 h1        1 MOL      0.115737
     57 N5          7.0360    0.2790   -1.5970 n         1 MOL     -0.216562
     58 C19         7.1980    1.6150   -2.1650 c3        1 MOL      0.085509
     59 C20         7.3140    2.7580   -1.1080 c         1 MOL      0.376220
     60 O10         7.3070    3.9720   -1.4670 o         1 MOL     -0.552510
     61 C21         6.1720    1.9780   -3.2560 c3        1 MOL     -0.195926
     62 C22         4.6980    1.8160   -2.8380 c         1 MOL      0.880618
     63 O11         3.8790    2.0350   -3.7150 o         1 MOL     -0.779452
     64 O12         4.3140    1.5130   -1.7310 o         1 MOL     -0.779452
     65 H26         6.1410    0.0600   -1.1720 hn        1 MOL      0.016865
     66 H27         8.1870    1.7940   -2.5900 h1        1 MOL      0.058230
     67 H28         6.4140    1.3080   -4.0890 hc        1 MOL      0.044117
     68 H29         6.3570    3.0090   -3.5620 hc        1 MOL      0.044117
     69 N6          7.1830    2.3670    0.1330 n         1 MOL     -0.153245
     70 C23         7.0950    3.1200    1.3180 c3        1 MOL     -0.086104
     71 C24         5.8090    3.9360    1.5220 c         1 MOL      0.477605
     72 O13         5.7270    5.1030    1.9460 o         1 MOL     -0.586278
     73 H30         7.0350    1.3690    0.1170 hn        1 MOL      0.205264
     74 H31         7.9600    3.7730    1.2240 h1        1 MOL      0.060206
     75 H32         7.1660    2.4630    2.1800 h1        1 MOL      0.060206
     76 N7          4.6680    3.3530    1.1850 n         1 MOL     -0.108805
     77 C25         3.3270    3.9880    1.3980 c3        1 MOL      0.054090
     78 C26         2.1890    2.9710    1.5700 c         1 MOL      0.339662
     79 O14         2.3010    1.8470    1.0220 o         1 MOL     -0.478820
     80 C27         2.9160    4.9410    0.2470 c3        1 MOL      0.149711
     81 C28         3.5880    6.2370    0.0820 c3        1 MOL     -0.242280
     82 C29         2.8670    7.2300   -0.8260 c         1 MOL      0.693561
     83 N8          2.6590    6.8340   -2.0680 n         1 MOL     -0.862376
     84 O15         2.5000    8.3040   -0.4140 o         1 MOL     -0.581162
     85 H33         4.6520    2.3950    0.8650 hn        1 MOL      0.039155
     86 H34         3.4160    4.5520    2.3330 h1        1 MOL      0.037341
     87 H35         1.8850    5.2450    0.4280 hc        1 MOL      0.006940
     88 H36         3.0220    4.5180   -0.7460 hc        1 MOL      0.006940
     89 H37         4.5690    5.9950   -0.3330 hc        1 MOL      0.066948
     90 H38         3.7610    6.7850    1.0020 hc        1 MOL      0.066948
     91 H39         3.0250    5.9750   -2.4570 hn        1 MOL      0.371917
     92 H40         2.2640    7.4740   -2.7410 hn        1 MOL      0.371917
     93 N9          1.0250    3.3930    2.0050 n         1 MOL     -0.461437
     94 C30        -0.2120    2.5940    1.9900 c3        1 MOL      0.533139
     95 C31        -1.1410    3.2390    0.9220 c         1 MOL      0.152581
     96 O16        -1.3010    4.4520    0.7740 o         1 MOL     -0.559940
     97 C32        -0.8930    2.5360    3.3950 c3        1 MOL      0.034809
     98 C33        -2.3580    2.0800    3.3250 c3        1 MOL     -0.261293
     99 C34        -0.1190    1.5230    4.3450 c3        1 MOL     -0.261293
    100 H41         0.9870    4.3430    2.3480 hn        1 MOL      0.265028
    101 H42        -0.1120    1.6270    1.4980 h1        1 MOL     -0.099144
    102 H43        -0.8600    3.5540    3.7790 hc        1 MOL     -0.007077
    103 H44        -3.0420    2.5510    2.6310 hc        1 MOL      0.059188
    104 H45        -2.3120    1.0410    2.9960 hc        1 MOL      0.059188
    105 H46        -2.8030    2.0960    4.3230 hc        1 MOL      0.059188
    106 H47         0.9460    1.7300    4.4930 hc        1 MOL      0.059188
    107 H48        -0.6640    1.4580    5.2820 hc        1 MOL      0.059188
    108 H49        -0.1990    0.4970    3.9800 hc        1 MOL      0.059188
    109 N10        -1.8270    2.4060    0.1870 n         1 MOL      0.188735
    110 C35        -2.8660    2.6790   -0.7270 c3        1 MOL      0.069155
    111 C36        -4.2230    2.0690   -0.3250 c         1 MOL      0.213069
    112 O17        -4.2920    1.2630    0.5900 o         1 MOL     -0.202147
    113 C37        -2.4320    2.3050   -2.1530 c3        1 MOL     -0.233870
    114 C38        -2.7340    0.8940   -2.5410 c         1 MOL      0.697681
    115 N11        -1.7880    0.1640   -3.0360 n         1 MOL     -0.812880
    116 O18        -3.8360    0.4690   -2.4870 o         1 MOL     -0.622369
    117 H50        -1.4840    1.4600    0.2430 hn        1 MOL      0.024928
    118 H51        -2.9650    3.7710   -0.7720 h1        1 MOL      0.036907
    119 H52        -1.3600    2.4470   -2.3090 hc        1 MOL      0.057201
    120 H53        -3.0180    2.9440   -2.8120 hc        1 MOL      0.057201
    121 H54        -0.8560    0.4560   -3.2640 hn        1 MOL      0.392458
    122 H55        -2.0640   -0.8150   -3.0660 hn        1 MOL      0.392458
    123 N12        -5.2700    2.4940   -1.0170 n         1 MOL     -0.385833
    124 C39        -6.6300    2.1590   -0.6530 c3        1 MOL      0.194260
    125 C40        -6.8850    0.6600   -0.3440 c         1 MOL      0.403816
    126 O19        -7.2690    0.2770    0.7870 o         1 MOL     -0.507080
    127 C41        -7.6930    2.8280   -1.5590 c3        1 MOL     -0.327329
    128 C42        -9.1380    2.6460   -1.0240 ca        1 MOL     -0.051481
    129 C43        -9.6870    3.5710   -0.1790 ca        1 MOL     -0.002140
    130 C44        -9.9270    1.5630   -1.4900 ca        1 MOL     -0.002140
    131 C45       -10.9740    3.4430    0.2830 ca        1 MOL     -0.382429
    132 C46       -11.3690    1.5870   -1.2180 ca        1 MOL     -0.382429
    133 C47       -11.8620    2.4850   -0.2200 ca        1 MOL      0.455785
    134 O20       -13.1380    2.4160    0.2090 oh        1 MOL     -0.553758
    135 H56        -5.1000    3.3300   -1.5680 hn        1 MOL      0.278822
    136 H57        -6.7280    2.6890    0.2930 h1        1 MOL      0.048426
    137 H58        -7.6720    2.2880   -2.5080 hc        1 MOL      0.110591
    138 H59        -7.5090    3.9040   -1.5570 hc        1 MOL      0.110591
    139 H60        -9.1230    4.4610    0.0410 ha        1 MOL      0.102107
    140 H61        -9.3490    0.8760   -2.0970 ha        1 MOL      0.102107
    141 H62       -11.5370    4.2070    0.7940 ha        1 MOL      0.154818
    142 H63       -11.9840    0.8000   -1.6290 ha        1 MOL      0.154818
    143 H64       -13.4890    1.5460    0.0390 ho        1 MOL      0.398911
    144 N13        -6.6230   -0.2980   -1.2630 n         1 MOL     -0.254211
    145 C48        -6.7700   -1.7480   -0.9420 c3        1 MOL     -0.070120
    146 C49        -5.8350   -2.1130    0.1930 c         1 MOL      0.357379
    147 O21        -6.1760   -3.0740    0.9440 o         1 MOL     -0.531661
    148 C50        -6.5720   -2.6830   -2.1660 c3        1 MOL      0.177346
    149 C51        -7.3400   -4.0090   -2.0340 c3        1 MOL     -0.148445
    150 C52        -7.0370   -5.0240   -3.1160 c         1 MOL      0.708115
    151 O22        -6.2910   -6.0030   -2.8870 o         1 MOL     -0.746099
    152 O23        -7.4620   -4.8210   -4.2640 o         1 MOL     -0.746099
    153 H65        -6.1960   -0.0420   -2.1500 hn        1 MOL      0.254898
    154 H66        -7.8140   -1.8940   -0.6410 h1        1 MOL      0.095268
    155 H67        -5.4960   -2.8540   -2.2700 hc        1 MOL     -0.037430
    156 H68        -6.8640   -2.1020   -3.0350 hc        1 MOL     -0.037430
    157 H69        -8.3950   -3.7230   -2.1050 hc        1 MOL     -0.009498
    158 H70        -7.2280   -4.4600   -1.0500 hc        1 MOL     -0.009498
    159 N14        -4.6750   -1.5830    0.3180 n         1 MOL     -0.127263
    160 C53        -3.7730   -1.9170    1.4890 c3        1 MOL     -0.093998
    161 C54        -4.3470   -1.5070    2.8000 c         1 MOL      0.383131
    162 O24        -4.0830   -2.1920    3.8000 o         1 MOL     -0.577952
    163 C55        -2.3460   -1.3150    1.3080 c3        1 MOL      0.285105
    164 C56        -1.4980   -1.9790    0.1190 c3        1 MOL     -0.178092
    165 C57        -0.1360   -1.2780    0.0300 c         1 MOL      0.779431
    166 O25         0.9000   -1.8870   -0.2020 o         1 MOL     -0.714783
    167 O26        -0.0730   -0.0060   -0.1400 o         1 MOL     -0.714783
    168 H71        -4.3270   -0.9050   -0.3370 hn        1 MOL      0.125269
    169 H72        -3.5430   -2.9870    1.4910 h1        1 MOL      0.099069
    170 H73        -1.7740   -1.2380    2.2280 hc        1 MOL     -0.023339
    171 H74        -2.5890   -0.2780    1.0770 hc        1 MOL     -0.023339
    172 H75        -2.0490   -1.9720   -0.8240 hc        1 MOL      0.043739
    173 H76        -1.2080   -3.0030    0.3620 hc        1 MOL      0.043739
    174 N15        -4.9250   -0.3580    2.7790 n         1 MOL      0.157061
    175 C58        -5.5990    0.1770    3.9990 c3        1 MOL     -0.268071
    176 H77        -6.3520   -0.5350    4.3380 h1        1 MOL      0.083090
    177 H78        -4.8600    0.3280    4.7860 h1        1 MOL      0.083090
    178 H79        -6.0790    1.1270    3.7630 h1        1 MOL      0.083090
    179 H80        -5.0650    0.1200    1.8960 hn        1 MOL     -0.058252
    180 Ca1         2.3550    0.0160   -1.1040 Ca        1 MOL      1.716421
    181 O27         1.6820    2.3590   -2.0560 oh        1 MOL     -0.884756
    182 H81         2.5270    2.4830   -2.4770 ho        1 MOL      0.419608
    183 H82         1.0480    2.7690   -2.6490 ho        1 MOL      0.419608
    184 O28         1.1090   -0.2010   -3.6420 oh        1 MOL     -0.884756
    185 H83         1.0730   -1.0950   -3.9850 ho        1 MOL      0.419608
    186 H84         1.3520    0.3360   -4.3930 ho        1 MOL      0.419608
@<TRIPOS>BOND
     1    1    2 1   
     2    1    4 1   
     3    1    5 1   
     4    1    6 1   
     5    2    3 2   
     6    2    7 1   
     7    7    8 1   
     8    7   15 1   
     9    8    9 1   
    10    8   11 1   
    11    8   16 1   
    12    9   10 2   
    13    9   19 1   
    14   11   12 1   
    15   11   17 1   
    16   11   18 1   
    17   12   13 1   
    18   12   14 1   
    19   19   20 1   
    20   19   27 1   
    21   20   21 1   
    22   20   23 1   
    23   20   28 1   
    24   21   22 2   
    25   21   38 1   
    26   23   24 1   
    27   23   25 1   
    28   23   29 1   
    29   24   26 1   
    30   24   30 1   
    31   24   31 1   
    32   25   32 1   
    33   25   33 1   
    34   25   34 1   
    35   26   35 1   
    36   26   36 1   
    37   26   37 1   
    38   38   39 1   
    39   38   46 1   
    40   39   40 1   
    41   39   42 1   
    42   39   47 1   
    43   40   41 2   
    44   40   50 1   
    45   42   43 1   
    46   42   48 1   
    47   42   49 1   
    48   43   44 1   
    49   43   45 1   
    50   50   51 1   
    51   50   54 1   
    52   51   52 1   
    53   51   55 1   
    54   51   56 1   
    55   52   53 2   
    56   52   57 1   
    57   57   58 1   
    58   57   65 1   
    59   58   59 1   
    60   58   61 1   
    61   58   66 1   
    62   59   60 2   
    63   59   69 1   
    64   61   62 1   
    65   61   67 1   
    66   61   68 1   
    67   62   63 1   
    68   62   64 1   
    69   69   70 1   
    70   69   73 1   
    71   70   71 1   
    72   70   74 1   
    73   70   75 1   
    74   71   72 2   
    75   71   76 1   
    76   76   77 1   
    77   76   85 1   
    78   77   78 1   
    79   77   80 1   
    80   77   86 1   
    81   78   79 2   
    82   78   93 1   
    83   80   81 1   
    84   80   87 1   
    85   80   88 1   
    86   81   82 1   
    87   81   89 1   
    88   81   90 1   
    89   82   83 1   
    90   82   84 2   
    91   83   91 1   
    92   83   92 1   
    93   93   94 1   
    94   93  100 1   
    95   94   95 1   
    96   94   97 1   
    97   94  101 1   
    98   95   96 2   
    99   95  109 1   
   100   97   98 1   
   101   97   99 1   
   102   97  102 1   
   103   98  103 1   
   104   98  104 1   
   105   98  105 1   
   106   99  106 1   
   107   99  107 1   
   108   99  108 1   
   109  109  110 1   
   110  109  117 1   
   111  110  111 1   
   112  110  113 1   
   113  110  118 1   
   114  111  112 2   
   115  111  123 1   
   116  113  114 1   
   117  113  119 1   
   118  113  120 1   
   119  114  115 1   
   120  114  116 2   
   121  115  121 1   
   122  115  122 1   
   123  123  124 1   
   124  123  135 1   
   125  124  125 1   
   126  124  127 1   
   127  124  136 1   
   128  125  126 2   
   129  125  144 1   
   130  127  128 1   
   131  127  137 1   
   132  127  138 1   
   133  128  129 ar  
   134  128  130 ar  
   135  129  131 ar  
   136  129  139 1   
   137  130  132 ar  
   138  130  140 1   
   139  131  133 ar  
   140  131  141 1   
   141  132  133 ar  
   142  132  142 1   
   143  133  134 1   
   144  134  143 1   
   145  144  145 1   
   146  144  153 1   
   147  145  146 1   
   148  145  148 1   
   149  145  154 1   
   150  146  147 2   
   151  146  159 1   
   152  148  149 1   
   153  148  155 1   
   154  148  156 1   
   155  149  150 1   
   156  149  157 1   
   157  149  158 1   
   158  150  151 1   
   159  150  152 1   
   160  159  160 1   
   161  159  168 1   
   162  160  161 1   
   163  160  163 1   
   164  160  169 1   
   165  161  162 2   
   166  161  174 1   
   167  163  164 1   
   168  163  170 1   
   169  163  171 1   
   170  164  165 1   
   171  164  172 1   
   172  164  173 1   
   173  165  166 1   
   174  165  167 1   
   175  174  175 1   
   176  174  179 1   
   177  175  176 1   
   178  175  177 1   
   179  175  178 1   
   180  181  182 1   
   181  181  183 1   
   182  184  185 1   
   183  184  186 1   
@<TRIPOS>SUBSTRUCTURE
     1 MOL         1 TEMP              0 ****  ****    0 ROOT
