@<TRIPOS>MOLECULE
MOL
  189   185     1     0     0
SMALL
resp


@<TRIPOS>ATOM
      1 C1         -0.3520    3.6850    4.0060 c3        1 MOL     -0.304524
      2 C2         -0.9920    3.2220    2.6880 c         1 MOL      0.646121
      3 O1         -0.5340    3.6900    1.6380 o         1 MOL     -0.572188
      4 H1         -0.3700    4.7740    4.0550 hc        1 MOL      0.072630
      5 H2         -0.9110    3.2740    4.8460 hc        1 MOL      0.072630
      6 H3          0.6800    3.3360    4.0520 hc        1 MOL      0.072630
      7 N1         -1.9780    2.3850    2.7840 n         1 MOL     -0.531533
      8 C3         -2.7200    1.7910    1.6780 c3        1 MOL      0.283926
      9 C4         -3.5570    2.8040    0.9620 c         1 MOL      0.247765
     10 O2         -4.7730    2.8220    1.0900 o         1 MOL     -0.442241
     11 C5         -3.3930    0.5170    2.2620 c3        1 MOL     -0.058740
     12 C6         -4.1660   -0.3410    1.2380 c         1 MOL      0.620233
     13 O3         -3.8190   -0.2490    0.0690 o         1 MOL     -0.615428
     14 O4         -5.1070   -1.0520    1.6810 o         1 MOL     -0.615428
     15 H4         -2.4080    2.2650    3.6840 hn        1 MOL      0.310452
     16 H5         -2.0400    1.3960    0.9250 h1        1 MOL      0.023382
     17 H6         -4.0090    0.8880    3.0780 hc        1 MOL     -0.017972
     18 H7         -2.5800   -0.1370    2.5760 hc        1 MOL     -0.017972
     19 N2         -2.9410    3.7860    0.3120 n         1 MOL     -0.041360
     20 C7         -3.5620    4.9630   -0.2830 c3        1 MOL     -0.130689
     21 C8         -4.4180    4.7320   -1.5520 c         1 MOL      0.445670
     22 O5         -4.9570    5.6310   -2.1950 o         1 MOL     -0.546764
     23 C9         -2.5190    6.0440   -0.4460 c3        1 MOL      0.056681
     24 C10        -1.9600    6.6690    0.8350 c3        1 MOL     -0.005604
     25 C11        -2.9680    7.5520    1.5810 c3        1 MOL     -0.153943
     26 C12        -2.4420    8.2450    2.8670 c3        1 MOL      0.127191
     27 N3         -3.3230    9.3740    3.2600 n4        1 MOL     -0.454253
     28 H8         -1.9380    3.6680    0.3480 hn        1 MOL      0.168009
     29 H9         -4.2210    5.3430    0.4920 h1        1 MOL      0.045303
     30 H10        -3.0090    6.8960   -0.9130 hc        1 MOL      0.024093
     31 H11        -1.7870    5.7810   -1.2180 hc        1 MOL      0.024093
     32 H12        -1.1430    7.2760    0.4450 hc        1 MOL      0.027030
     33 H13        -1.5320    5.9010    1.4740 hc        1 MOL      0.027030
     34 H14        -3.7340    6.8420    1.8960 hc        1 MOL      0.063629
     35 H15        -3.3260    8.3710    0.9540 hc        1 MOL      0.063629
     36 H16        -1.4230    8.5690    2.6270 hx        1 MOL      0.060672
     37 H17        -2.3970    7.4470    3.6050 hx        1 MOL      0.060672
     38 H18        -3.5810    9.9630    2.4840 hn        1 MOL      0.351673
     39 H19        -4.1400    9.0580    3.7620 hn        1 MOL      0.351673
     40 H20        -2.9120    9.9930    3.9390 hn        1 MOL      0.351673
     41 N4         -4.5380    3.4090   -1.8510 n         1 MOL     -0.076359
     42 C13        -5.3750    2.8530   -2.8660 c3        1 MOL     -0.004503
     43 C14        -6.3520    1.8830   -2.2980 c         1 MOL      0.319840
     44 O6         -7.2820    1.4940   -3.0580 o         1 MOL     -0.515489
     45 C15        -4.5270    2.2590   -4.0120 c3        1 MOL     -0.113325
     46 C16        -3.1960    1.5250   -3.6960 c         1 MOL      0.637741
     47 O7         -2.2280    1.5600   -4.5450 o         1 MOL     -0.668685
     48 O8         -3.1240    1.0510   -2.5190 o         1 MOL     -0.668685
     49 H21        -3.9350    2.7580   -1.3820 hn        1 MOL      0.081622
     50 H22        -5.9760    3.6200   -3.3400 h1        1 MOL      0.090984
     51 H23        -4.2410    2.9740   -4.7770 hc        1 MOL      0.038068
     52 H24        -5.1770    1.5520   -4.5340 hc        1 MOL      0.038068
     53 N5         -6.3380    1.4810   -1.0430 n         1 MOL     -0.057403
     54 C17        -7.2470    0.4540   -0.4320 c3        1 MOL      0.003900
     55 C18        -7.3620   -0.9740   -1.0760 c         1 MOL      0.360332
     56 O9         -8.4440   -1.2770   -1.5680 o         1 MOL     -0.541464
     57 H25        -5.7080    1.9060   -0.3740 hn        1 MOL      0.013287
     58 H26        -8.2430    0.8980   -0.3830 h1        1 MOL      0.044941
     59 H27        -6.9250    0.3770    0.6010 h1        1 MOL      0.044941
     60 N6         -6.2820   -1.7150   -1.0600 n         1 MOL      0.023226
     61 C19        -6.2630   -3.1070   -1.6030 c3        1 MOL     -0.008778
     62 C20        -6.1640   -4.1360   -0.4640 c         1 MOL      0.423484
     63 O10        -6.0880   -5.3430   -0.7060 o         1 MOL     -0.540120
     64 C21        -5.2690   -3.2020   -2.8040 c3        1 MOL     -0.176831
     65 C22        -3.8580   -2.8670   -2.4200 c         1 MOL      0.655261
     66 O11        -3.4680   -2.8300   -1.2030 o         1 MOL     -0.727075
     67 O12        -3.0370   -2.5450   -3.3610 o         1 MOL     -0.727075
     68 H28        -5.4270   -1.2660   -0.7740 hn        1 MOL      0.027298
     69 H29        -7.2650   -3.2430   -2.0050 h1        1 MOL      0.074397
     70 H30        -5.5400   -2.5860   -3.6570 hc        1 MOL      0.077022
     71 H31        -5.2370   -4.2600   -3.0640 hc        1 MOL      0.077022
     72 N7         -6.1390   -3.5720    0.7000 n         1 MOL     -0.234837
     73 C23        -5.9730   -4.2620    2.0160 c3        1 MOL     -0.186521
     74 C24        -4.5000   -4.6460    2.2580 c         1 MOL      0.544695
     75 O13        -4.2790   -5.4340    3.1890 o         1 MOL     -0.606620
     76 H32        -5.9470   -2.5830    0.6470 hn        1 MOL      0.136260
     77 H33        -6.6100   -5.1430    1.9210 h1        1 MOL      0.118772
     78 H34        -6.3260   -3.6050    2.7970 h1        1 MOL      0.118772
     79 N8         -3.5560   -4.1310    1.5410 n         1 MOL     -0.130341
     80 C25        -2.1150   -4.4510    1.6470 c3        1 MOL     -0.260243
     81 C26        -1.2430   -3.2280    1.6180 c         1 MOL      0.647608
     82 O14        -1.5430   -2.1570    0.9520 o         1 MOL     -0.546009
     83 C27        -1.7100   -5.4350    0.5040 c3        1 MOL      0.534625
     84 C28        -1.9760   -6.9180    0.7980 c3        1 MOL     -0.417330
     85 O15        -2.3630   -5.1130   -0.6810 oh        1 MOL     -0.734416
     86 H35        -3.8620   -3.4610    0.8490 hn        1 MOL      0.157061
     87 H36        -2.0010   -4.9550    2.6080 h1        1 MOL      0.106479
     88 H37        -0.6830   -5.2360    0.1970 h1        1 MOL     -0.067224
     89 H38        -2.6190   -4.1990   -0.7920 ho        1 MOL      0.571218
     90 H39        -2.9430   -6.9840    1.2970 hc        1 MOL      0.103683
     91 H40        -1.8700   -7.5500   -0.0920 hc        1 MOL      0.103683
     92 H41        -1.2860   -7.2560    1.5670 hc        1 MOL      0.103683
     93 N9         -0.0270   -3.3820    2.1730 n         1 MOL     -0.636689
     94 C29         1.0680   -2.3870    2.2830 c3        1 MOL      0.138903
     95 C30         2.3290   -3.0130    1.7010 c         1 MOL      0.469513
     96 O16         2.7180   -4.0260    2.3010 o         1 MOL     -0.551700
     97 C31         1.2030   -1.8720    3.8050 c3        1 MOL      0.117658
     98 C32        -0.0490   -1.1730    4.2700 c3        1 MOL      0.289627
     99 C33         2.3970   -0.8820    4.0150 c3        1 MOL     -0.329099
    100 C34        -0.1590   -0.8140    5.7190 c3        1 MOL     -0.404493
    101 H42         0.1190   -4.2820    2.6170 hn        1 MOL      0.312216
    102 H43         0.8290   -1.4780    1.7220 h1        1 MOL      0.062441
    103 H44         1.3440   -2.7010    4.5020 hc        1 MOL     -0.003705
    104 H45        -0.8800   -1.8100    3.9630 hc        1 MOL     -0.055459
    105 H46        -0.0400   -0.2560    3.6770 hc        1 MOL     -0.055459
    106 H47         2.7110   -0.8540    5.0610 hc        1 MOL      0.050525
    107 H48         3.2830   -1.2920    3.5310 hc        1 MOL      0.050525
    108 H49         2.2730    0.0350    3.4520 hc        1 MOL      0.050525
    109 H50         0.6200   -0.0980    5.9970 hc        1 MOL      0.092049
    110 H51        -1.1650   -0.4130    5.7980 hc        1 MOL      0.092049
    111 H52         0.0870   -1.7370    6.2480 hc        1 MOL      0.092049
    112 N10         2.8390   -2.4220    0.6060 n         1 MOL     -0.114417
    113 C35         4.1360   -2.7050   -0.0940 c3        1 MOL     -0.061009
    114 C36         5.3660   -2.1700    0.6300 c         1 MOL      0.404706
    115 O17         5.2800   -1.2360    1.4240 o         1 MOL     -0.282493
    116 C37         4.1420   -2.2170   -1.5760 c3        1 MOL      0.129287
    117 C38         2.8070   -2.4350   -2.2820 c3        1 MOL     -0.478887
    118 O18         4.4410   -0.8730   -1.6760 oh        1 MOL     -0.189901
    119 H53         2.2670   -1.7490    0.1140 hn        1 MOL      0.124497
    120 H54         4.1950   -3.7900   -0.0950 h1        1 MOL      0.086048
    121 H55         4.9160   -2.7320   -2.1580 h1        1 MOL      0.022425
    122 H56         4.5470   -0.7000   -2.6200 ho        1 MOL      0.298583
    123 H57         1.9680   -1.8240   -1.9620 hc        1 MOL      0.137150
    124 H58         2.8870   -2.1030   -3.3220 hc        1 MOL      0.137150
    125 H59         2.4110   -3.4460   -2.1700 hc        1 MOL      0.137150
    126 N11         6.5140   -2.7990    0.2660 n         1 MOL     -0.399662
    127 C39         7.8220   -2.1900    0.4590 c3        1 MOL     -0.063080
    128 C40         7.8760   -0.6940    0.1440 c         1 MOL      0.182145
    129 O19         8.5190    0.0870    0.8940 o         1 MOL     -0.489940
    130 C41         8.9180   -2.8320   -0.4800 c3        1 MOL      0.295532
    131 C42         9.2340   -4.2140    0.1120 c3        1 MOL     -0.435935
    132 O20         8.3750   -3.1300   -1.7230 oh        1 MOL     -0.582593
    133 H60         6.3860   -3.4040   -0.5370 hn        1 MOL      0.232572
    134 H61         8.1200   -2.2630    1.4970 h1        1 MOL      0.155245
    135 H62         9.7760   -2.1680   -0.5520 h1        1 MOL      0.094310
    136 H63         7.8210   -3.8680   -1.4630 ho        1 MOL      0.391433
    137 H64         9.5400   -4.1220    1.1580 hc        1 MOL      0.123207
    138 H65         8.3960   -4.9040    0.0130 hc        1 MOL      0.123207
    139 H66        10.0690   -4.6150   -0.4580 hc        1 MOL      0.123207
    140 N12         7.2030   -0.2310   -0.9130 n         1 MOL     -0.023086
    141 C43         7.1160    1.1850   -1.3650 c3        1 MOL     -0.092306
    142 C44         6.1750    2.0100   -0.4470 c         1 MOL      0.314625
    143 O21         6.4750    3.2010   -0.1740 o         1 MOL     -0.499684
    144 C45         6.8220    1.2140   -2.8470 c3        1 MOL     -0.098725
    145 C46         7.1450    2.5650   -3.6190 c3        1 MOL      0.007230
    146 C47         8.5360    3.1290   -3.3940 c3        1 MOL     -0.145039
    147 C48         9.5250    1.9620   -3.6970 c3        1 MOL      0.103666
    148 N13        10.8380    2.5180   -3.2810 n4        1 MOL     -0.406047
    149 H67         6.7220   -0.9060   -1.4890 hn        1 MOL      0.093015
    150 H68         8.1600    1.4580   -1.1790 h1        1 MOL      0.123000
    151 H69         5.7370    1.0720   -2.9000 hc        1 MOL      0.026406
    152 H70         7.3420    0.4000   -3.3500 hc        1 MOL      0.026406
    153 H71         6.3890    3.3170   -3.3800 hc        1 MOL      0.057602
    154 H72         6.9040    2.4180   -4.6820 hc        1 MOL      0.057602
    155 H73         8.6300    3.4100   -2.3440 hc        1 MOL      0.070495
    156 H74         8.7140    3.9120   -4.1320 hc        1 MOL      0.070495
    157 H75         9.5400    1.5410   -4.7020 hx        1 MOL      0.080830
    158 H76         9.2870    1.1110   -3.0700 hx        1 MOL      0.080830
    159 H77        11.6750    2.0210   -3.5520 hn        1 MOL      0.332333
    160 H78        11.0140    3.4280   -3.6740 hn        1 MOL      0.332333
    161 H79        10.9480    2.5350   -2.2770 hn        1 MOL      0.332333
    162 N14         5.1120    1.4150    0.1030 n         1 MOL      0.158500
    163 C49         4.0340    2.0420    0.8590 c3        1 MOL     -0.207899
    164 C50         4.4820    2.3960    2.2470 c         1 MOL      0.444023
    165 O22         4.3340    3.5490    2.6960 o         1 MOL     -0.529204
    166 C51         2.7630    1.1560    0.8210 c3        1 MOL      0.083592
    167 C52         2.0430    1.3250   -0.5260 c3        1 MOL     -0.117091
    168 C53         0.6370    0.7250   -0.6400 c         1 MOL      0.629978
    169 O23        -0.3760    1.2320   -1.2030 o         1 MOL     -0.707085
    170 O24         0.4330   -0.4710   -0.3230 o         1 MOL     -0.707085
    171 H80         5.0420    0.4300   -0.1460 hn        1 MOL     -0.142993
    172 H81         3.7640    2.9830    0.3760 h1        1 MOL      0.107280
    173 H82         2.0310    1.4990    1.5490 hc        1 MOL      0.053850
    174 H83         2.9720    0.1320    1.1160 hc        1 MOL      0.053850
    175 H84         2.6780    0.9840   -1.3310 hc        1 MOL      0.022153
    176 H85         1.7620    2.3720   -0.6720 hc        1 MOL      0.022153
    177 N15         5.2310    1.4470    2.8720 n         1 MOL     -0.107545
    178 C54         6.0700    1.7720    4.0460 c3        1 MOL     -0.393864
    179 H86         6.1640    2.8540    4.1360 h1        1 MOL      0.138439
    180 H87         5.6050    1.3730    4.9480 h1        1 MOL      0.138439
    181 H88         7.0590    1.3310    3.9210 h1        1 MOL      0.138439
    182 H89         5.3070    0.5070    2.5090 hn        1 MOL      0.184443
    183 Ca1        -1.8920   -0.8010   -1.4770 Ca        1 MOL      1.739934
    184 O25        -0.6660   -0.4540   -3.7800 oh        1 MOL     -0.800988
    185 H90        -0.1950   -0.8500   -4.5200 ho        1 MOL      0.378863
    186 H91        -1.1630    0.2610   -4.1740 ho        1 MOL      0.378863
    187 O26        -0.5500   -3.1900   -2.3080 oh        1 MOL     -0.800988
    188 H92        -0.6050   -3.1230   -3.2590 ho        1 MOL      0.378863
    189 H93        -0.9030   -4.0600   -2.1040 ho        1 MOL      0.378863
@<TRIPOS>BOND
     1    1    2 1   
     2    1    4 1   
     3    1    5 1   
     4    1    6 1   
     5    2    3 2   
     6    2    7 1   
     7    7    8 1   
     8    7   15 1   
     9    8    9 1   
    10    8   11 1   
    11    8   16 1   
    12    9   10 2   
    13    9   19 1   
    14   11   12 1   
    15   11   17 1   
    16   11   18 1   
    17   12   13 1   
    18   12   14 1   
    19   19   20 1   
    20   19   28 1   
    21   20   21 1   
    22   20   23 1   
    23   20   29 1   
    24   21   22 2   
    25   21   41 1   
    26   23   24 1   
    27   23   30 1   
    28   23   31 1   
    29   24   25 1   
    30   24   32 1   
    31   24   33 1   
    32   25   26 1   
    33   25   34 1   
    34   25   35 1   
    35   26   27 1   
    36   26   36 1   
    37   26   37 1   
    38   27   38 1   
    39   27   39 1   
    40   27   40 1   
    41   41   42 1   
    42   41   49 1   
    43   42   43 1   
    44   42   45 1   
    45   42   50 1   
    46   43   44 2   
    47   43   53 1   
    48   45   46 1   
    49   45   51 1   
    50   45   52 1   
    51   46   47 1   
    52   46   48 1   
    53   53   54 1   
    54   53   57 1   
    55   54   55 1   
    56   54   58 1   
    57   54   59 1   
    58   55   56 2   
    59   55   60 1   
    60   60   61 1   
    61   60   68 1   
    62   61   62 1   
    63   61   64 1   
    64   61   69 1   
    65   62   63 2   
    66   62   72 1   
    67   64   65 1   
    68   64   70 1   
    69   64   71 1   
    70   65   66 1   
    71   65   67 1   
    72   72   73 1   
    73   72   76 1   
    74   73   74 1   
    75   73   77 1   
    76   73   78 1   
    77   74   75 2   
    78   74   79 1   
    79   79   80 1   
    80   79   86 1   
    81   80   81 1   
    82   80   83 1   
    83   80   87 1   
    84   81   82 2   
    85   81   93 1   
    86   83   84 1   
    87   83   85 1   
    88   83   88 1   
    89   84   90 1   
    90   84   91 1   
    91   84   92 1   
    92   85   89 1   
    93   93   94 1   
    94   93  101 1   
    95   94   95 1   
    96   94   97 1   
    97   94  102 1   
    98   95   96 2   
    99   95  112 1   
   100   97   98 1   
   101   97   99 1   
   102   97  103 1   
   103   98  100 1   
   104   98  104 1   
   105   98  105 1   
   106   99  106 1   
   107   99  107 1   
   108   99  108 1   
   109  100  109 1   
   110  100  110 1   
   111  100  111 1   
   112  112  113 1   
   113  112  119 1   
   114  113  114 1   
   115  113  116 1   
   116  113  120 1   
   117  114  115 2   
   118  114  126 1   
   119  116  117 1   
   120  116  118 1   
   121  116  121 1   
   122  117  123 1   
   123  117  124 1   
   124  117  125 1   
   125  118  122 1   
   126  126  127 1   
   127  126  133 1   
   128  127  128 1   
   129  127  130 1   
   130  127  134 1   
   131  128  129 2   
   132  128  140 1   
   133  130  131 1   
   134  130  132 1   
   135  130  135 1   
   136  131  137 1   
   137  131  138 1   
   138  131  139 1   
   139  132  136 1   
   140  140  141 1   
   141  140  149 1   
   142  141  142 1   
   143  141  144 1   
   144  141  150 1   
   145  142  143 2   
   146  142  162 1   
   147  144  145 1   
   148  144  151 1   
   149  144  152 1   
   150  145  146 1   
   151  145  153 1   
   152  145  154 1   
   153  146  147 1   
   154  146  155 1   
   155  146  156 1   
   156  147  148 1   
   157  147  157 1   
   158  147  158 1   
   159  148  159 1   
   160  148  160 1   
   161  148  161 1   
   162  162  163 1   
   163  162  171 1   
   164  163  164 1   
   165  163  166 1   
   166  163  172 1   
   167  164  165 2   
   168  164  177 1   
   169  166  167 1   
   170  166  173 1   
   171  166  174 1   
   172  167  168 1   
   173  167  175 1   
   174  167  176 1   
   175  168  169 1   
   176  168  170 1   
   177  177  178 1   
   178  177  182 1   
   179  178  179 1   
   180  178  180 1   
   181  178  181 1   
   182  184  185 1   
   183  184  186 1   
   184  187  188 1   
   185  187  189 1   
@<TRIPOS>SUBSTRUCTURE
     1 MOL         1 TEMP              0 ****  ****    0 ROOT
