@<TRIPOS>MOLECULE
MOL
  189   185     1     0     0
SMALL
resp


@<TRIPOS>ATOM
      1 C1         -0.6340    2.9120   -4.9770 c3        1 MOL     -0.384882
      2 C2          0.1520    2.7130   -3.6930 c         1 MOL      0.605861
      3 O1         -0.4200    2.9020   -2.6230 o         1 MOL     -0.547989
      4 H1         -0.0590    2.5220   -5.8170 hc        1 MOL      0.102998
      5 H2         -1.5830    2.3800   -4.9100 hc        1 MOL      0.102998
      6 H3         -0.8210    3.9750   -5.1290 hc        1 MOL      0.102998
      7 N1          1.4350    2.2890   -3.7100 n         1 MOL     -0.570742
      8 C3          2.2390    1.9380   -2.5230 c3        1 MOL      0.299526
      9 C4          2.6880    3.1410   -1.7130 c         1 MOL      0.404594
     10 O2          3.8550    3.5160   -1.6620 o         1 MOL     -0.442281
     11 C5          3.3990    1.0130   -2.8320 c3        1 MOL     -0.443733
     12 C6          4.0690    0.4610   -1.6040 c         1 MOL      0.890216
     13 O3          3.4630    0.4080   -0.5140 o         1 MOL     -0.709329
     14 O4          5.2650    0.0360   -1.6910 o         1 MOL     -0.709329
     15 H4          1.9100    2.1600   -4.6030 hn        1 MOL      0.323196
     16 H5          1.6670    1.4060   -1.7640 h1        1 MOL      0.063617
     17 H6          4.1650    1.5730   -3.3670 hc        1 MOL      0.101825
     18 H7          3.0860    0.1190   -3.3660 hc        1 MOL      0.101825
     19 N2          1.7170    3.9400   -1.1750 n         1 MOL     -0.429405
     20 C7          1.8970    5.2910   -0.5410 c3        1 MOL      0.002318
     21 C8          2.5510    5.2140    0.8430 c         1 MOL      0.491604
     22 O5          2.7450    6.2270    1.5170 o         1 MOL     -0.561944
     23 C9          0.5190    5.9960   -0.5490 c3        1 MOL     -0.054596
     24 C10         0.1340    6.4880   -1.8990 c3        1 MOL      0.237317
     25 C11        -0.8990    7.5990   -1.7190 c3        1 MOL     -0.000859
     26 C12        -1.5190    8.1500   -2.9540 c3        1 MOL     -0.101226
     27 N3         -2.3200    7.1790   -3.6490 n4        1 MOL     -0.249031
     28 H8          0.7820    3.6310   -1.3880 hn        1 MOL      0.300601
     29 H9          2.6090    5.7610   -1.2240 h1        1 MOL      0.097124
     30 H10         0.5940    6.6680    0.2990 hc        1 MOL      0.016629
     31 H11        -0.1760    5.1960   -0.3060 hc        1 MOL      0.016629
     32 H12        -0.2970    5.6440   -2.4410 hc        1 MOL     -0.060191
     33 H13         1.0200    6.8350   -2.4300 hc        1 MOL     -0.060191
     34 H14        -0.4360    8.4180   -1.1870 hc        1 MOL      0.027820
     35 H15        -1.7020    7.1110   -1.1560 hc        1 MOL      0.027820
     36 H16        -0.8150    8.6580   -3.6130 hx        1 MOL      0.106645
     37 H17        -2.2410    8.8750   -2.5720 hx        1 MOL      0.106645
     38 H18        -2.9240    7.6680   -4.3010 hn        1 MOL      0.306429
     39 H19        -1.7700    6.5830   -4.2510 hn        1 MOL      0.306429
     40 H20        -2.9120    6.6260   -3.0540 hn        1 MOL      0.306429
     41 N4          3.0030    4.0300    1.4060 n         1 MOL     -0.334424
     42 C13         3.9580    3.9350    2.5470 c3        1 MOL      0.378588
     43 C14         5.3260    3.3370    2.0740 c         1 MOL      0.219134
     44 O6          6.3400    3.6270    2.7280 o         1 MOL     -0.556101
     45 C15         3.3790    3.1880    3.7010 c3        1 MOL     -0.509711
     46 C16         2.6950    1.7920    3.5000 c         1 MOL      0.851676
     47 O7          2.9900    1.2450    2.4360 o         1 MOL     -0.710197
     48 O8          1.8550    1.3520    4.2810 o         1 MOL     -0.710197
     49 H21         2.7190    3.1900    0.9090 hn        1 MOL      0.227903
     50 H22         4.2020    4.9150    2.9770 h1        1 MOL      0.050669
     51 H23         2.7150    3.8830    4.2130 hc        1 MOL      0.105926
     52 H24         4.1980    2.9610    4.3770 hc        1 MOL      0.105926
     53 N5          5.4190    2.6640    0.9710 n         1 MOL      0.226937
     54 C17         6.6140    2.1090    0.3210 c3        1 MOL     -0.286649
     55 C18         7.0210    0.7050    0.8550 c         1 MOL      0.601764
     56 O9          8.1500    0.3040    0.5530 o         1 MOL     -0.590407
     57 H25         4.5750    2.4880    0.4390 hn        1 MOL     -0.269680
     58 H26         7.4520    2.7780    0.5340 h1        1 MOL      0.133483
     59 H27         6.4740    2.0850   -0.7590 h1        1 MOL      0.133483
     60 N6          6.1770   -0.0460    1.5560 n         1 MOL     -0.317046
     61 C19         6.6260   -1.2040    2.1790 c3        1 MOL     -0.030306
     62 C20         6.9690   -2.3760    1.1450 c         1 MOL      0.436753
     63 O10         7.4690   -3.4060    1.5430 o         1 MOL     -0.536294
     64 C21         5.5950   -1.6910    3.2500 c3        1 MOL     -0.179284
     65 C22         4.2270   -1.9500    2.6640 c         1 MOL      0.665673
     66 O11         3.2740   -1.6850    3.4270 o         1 MOL     -0.666198
     67 O12         4.0080   -2.4020    1.5240 o         1 MOL     -0.666198
     68 H28         5.1920    0.1320    1.5160 hn        1 MOL      0.260257
     69 H29         7.5970   -1.0620    2.6570 h1        1 MOL      0.096035
     70 H30         5.5170   -0.9410    4.0420 hc        1 MOL      0.071421
     71 H31         6.0240   -2.5590    3.7530 hc        1 MOL      0.071421
     72 N7          6.7910   -2.1370   -0.1380 n         1 MOL     -0.107435
     73 C23         6.9930   -3.0450   -1.2350 c3        1 MOL     -0.158270
     74 C24         5.7980   -3.9740   -1.4450 c         1 MOL      0.634458
     75 O13         6.0330   -5.0310   -1.9880 o         1 MOL     -0.601023
     76 H32         6.2260   -1.3510   -0.4410 hn        1 MOL      0.247420
     77 H33         7.8870   -3.6280   -1.0530 h1        1 MOL      0.077314
     78 H34         7.1590   -2.4650   -2.1470 h1        1 MOL      0.077314
     79 N8          4.6160   -3.5330   -1.1410 n         1 MOL     -0.340979
     80 C25         3.3180   -4.3620   -1.2970 c3        1 MOL     -0.092423
     81 C26         2.1140   -3.4460   -1.3810 c         1 MOL      0.753503
     82 O14         2.2430   -2.2650   -1.0450 o         1 MOL     -0.685603
     83 C27         3.1400   -5.3220   -0.1250 c3        1 MOL      0.425875
     84 C28         3.6480   -6.7330   -0.4460 c3        1 MOL     -0.451118
     85 O15         3.8800   -5.0610    1.0430 oh        1 MOL     -0.621396
     86 H35         4.6430   -2.6590   -0.6280 hn        1 MOL      0.144728
     87 H36         3.3480   -4.9700   -2.2040 h1        1 MOL      0.093941
     88 H37         2.1170   -5.3470    0.2620 h1        1 MOL     -0.033553
     89 H38         3.8700   -4.1160    1.1930 ho        1 MOL      0.421067
     90 H39         3.2300   -6.9580   -1.4340 hc        1 MOL      0.110922
     91 H40         4.7320   -6.8740   -0.5080 hc        1 MOL      0.110922
     92 H41         3.3340   -7.5170    0.2470 hc        1 MOL      0.110922
     93 N9          0.9610   -3.9350   -1.7770 n         1 MOL     -0.781767
     94 C29        -0.3330   -3.1160   -2.0070 c3        1 MOL      0.237186
     95 C30        -1.4660   -3.7920   -1.2420 c         1 MOL      0.402284
     96 O16        -1.9340   -4.9140   -1.5650 o         1 MOL     -0.556666
     97 C31        -0.6570   -2.8840   -3.5420 c3        1 MOL      0.229386
     98 C32         0.4220   -2.0830   -4.3260 c3        1 MOL      0.091625
     99 C33        -2.0990   -2.3460   -3.7860 c3        1 MOL     -0.494456
    100 C34         0.2920   -2.3140   -5.8840 c3        1 MOL     -0.123457
    101 H42         0.9000   -4.9160   -2.0180 hn        1 MOL      0.348234
    102 H43        -0.1610   -2.0890   -1.6870 h1        1 MOL      0.003678
    103 H44        -0.5330   -3.8910   -3.9410 hc        1 MOL     -0.040527
    104 H45         1.4240   -2.4090   -4.0510 hc        1 MOL      0.004868
    105 H46         0.4420   -1.0150   -4.1150 hc        1 MOL      0.004868
    106 H47        -2.2600   -2.3340   -4.8590 hc        1 MOL      0.110116
    107 H48        -2.8690   -2.9440   -3.2950 hc        1 MOL      0.110116
    108 H49        -2.0320   -1.3470   -3.3560 hc        1 MOL      0.110116
    109 H50        -0.6820   -2.0350   -6.2790 hc        1 MOL      0.023331
    110 H51         1.0290   -1.5890   -6.2450 hc        1 MOL      0.023331
    111 H52         0.6270   -3.3110   -6.1680 hc        1 MOL      0.023331
    112 N10        -2.1760   -2.9500   -0.4990 n         1 MOL     -0.032906
    113 C35        -3.4710   -3.2950    0.2030 c3        1 MOL      0.045183
    114 C36        -4.8160   -2.8990   -0.4850 c         1 MOL      0.298912
    115 O17        -4.8880   -2.1000   -1.3590 o         1 MOL     -0.286127
    116 C37        -3.5280   -2.7400    1.6040 c3        1 MOL      0.085624
    117 C38        -2.4150   -3.1550    2.6460 c3        1 MOL     -0.354168
    118 O18        -3.6470   -1.3130    1.7230 oh        1 MOL     -0.370167
    119 H53        -1.7320   -2.0850   -0.2100 hn        1 MOL      0.110694
    120 H54        -3.5280   -4.3830    0.2910 h1        1 MOL      0.065377
    121 H55        -4.4370   -3.0990    2.0970 h1        1 MOL      0.048769
    122 H56        -3.1270   -0.9240    2.4270 ho        1 MOL      0.336111
    123 H57        -2.6210   -4.2140    2.7850 hc        1 MOL      0.110155
    124 H58        -1.4390   -3.0390    2.1580 hc        1 MOL      0.110155
    125 H59        -2.5000   -2.6010    3.5830 hc        1 MOL      0.110155
    126 N11        -5.9280   -3.5060   -0.0410 n         1 MOL     -0.347478
    127 C39        -7.3570   -3.0830   -0.2180 c3        1 MOL     -0.053329
    128 C40        -7.6350   -1.6250    0.1770 c         1 MOL      0.405164
    129 O19        -8.7010   -1.1430   -0.2890 o         1 MOL     -0.523854
    130 C41        -8.2460   -3.9040    0.7670 c3        1 MOL      0.317403
    131 C42        -8.4840   -5.4050    0.4780 c3        1 MOL     -0.204245
    132 O20        -7.8060   -3.8060    2.1360 oh        1 MOL     -0.664842
    133 H60        -5.7670   -4.1840    0.6840 hn        1 MOL      0.299038
    134 H61        -7.7800   -3.2270   -1.2180 h1        1 MOL      0.132338
    135 H62        -9.2450   -3.4730    0.7080 h1        1 MOL      0.013831
    136 H63        -8.5580   -3.7450    2.7190 ho        1 MOL      0.424628
    137 H64        -9.0070   -5.5610   -0.4640 hc        1 MOL      0.055869
    138 H65        -7.4560   -5.6980    0.2660 hc        1 MOL      0.055869
    139 H66        -8.9300   -5.9480    1.3030 hc        1 MOL      0.055869
    140 N12        -6.7770   -0.9840    0.9360 n         1 MOL     -0.210216
    141 C43        -6.9040    0.4540    1.2930 c3        1 MOL     -0.063683
    142 C44        -6.1080    1.3910    0.3010 c         1 MOL      0.357006
    143 O21        -6.5850    2.4960   -0.0940 o         1 MOL     -0.533735
    144 C45        -6.3060    0.5970    2.7210 c3        1 MOL     -0.033538
    145 C46        -6.3200    1.9950    3.3390 c3        1 MOL     -0.068320
    146 C47        -6.1220    1.9470    4.8280 c3        1 MOL      0.080289
    147 C48        -6.3580    3.4180    5.4320 c3        1 MOL     -0.092679
    148 N13        -6.5500    3.3710    6.8940 n4        1 MOL     -0.042026
    149 H67        -5.9970   -1.5100    1.2850 hn        1 MOL      0.153393
    150 H68        -7.9480    0.7370    1.2070 h1        1 MOL      0.130011
    151 H69        -5.3250    0.1460    2.8590 hc        1 MOL      0.029453
    152 H70        -6.8020   -0.1260    3.3720 hc        1 MOL      0.029453
    153 H71        -7.3170    2.3590    3.1090 hc        1 MOL      0.041876
    154 H72        -5.5410    2.5950    2.8530 hc        1 MOL      0.041876
    155 H73        -5.1300    1.6190    5.1200 hc        1 MOL      0.012712
    156 H74        -6.8400    1.2690    5.2870 hc        1 MOL      0.012712
    157 H75        -7.2770    3.7250    4.9340 hx        1 MOL      0.099833
    158 H76        -5.5100    4.0930    5.3180 hx        1 MOL      0.099833
    159 H77        -7.1710    2.5980    7.1020 hn        1 MOL      0.224657
    160 H78        -5.7030    3.0060    7.3090 hn        1 MOL      0.224657
    161 H79        -6.8870    4.2010    7.3660 hn        1 MOL      0.224657
    162 N14        -4.9590    0.9120   -0.1190 n         1 MOL      0.141899
    163 C49        -4.2040    1.5610   -1.1720 c3        1 MOL     -0.243499
    164 C50        -4.8080    1.5500   -2.6030 c         1 MOL      0.478539
    165 O22        -4.6770    2.4900   -3.3780 o         1 MOL     -0.560302
    166 C51        -2.8900    0.8370   -1.0650 c3        1 MOL      0.039812
    167 C52        -2.0950    1.3750    0.0790 c3        1 MOL     -0.178962
    168 C53        -0.6830    0.7060    0.1000 c         1 MOL      0.697450
    169 O23         0.3590    1.2980    0.3400 o         1 MOL     -0.732042
    170 O24        -0.5390   -0.5460    0.0140 o         1 MOL     -0.732042
    171 H80        -4.6490   -0.0040    0.1960 hn        1 MOL     -0.159171
    172 H81        -3.9850    2.6030   -0.9400 h1        1 MOL      0.111725
    173 H82        -2.3700    1.0960   -1.9920 hc        1 MOL      0.043607
    174 H83        -3.0130   -0.2380   -1.1710 hc        1 MOL      0.043607
    175 H84        -2.6340    1.2950    1.0160 hc        1 MOL      0.055767
    176 H85        -1.9760    2.4600    0.0470 hc        1 MOL      0.055767
    177 N15        -5.5090    0.4540   -2.9090 n         1 MOL     -0.059909
    178 C54        -6.5080    0.4260   -4.0030 c3        1 MOL     -0.288555
    179 H86        -6.0370    0.0540   -4.9140 h1        1 MOL      0.113162
    180 H87        -7.3310   -0.2320   -3.7270 h1        1 MOL      0.113162
    181 H88        -6.8890    1.4320   -4.1750 h1        1 MOL      0.113162
    182 H89        -5.2510   -0.4280   -2.4890 hn        1 MOL      0.116866
    183 Ca1         1.8300   -0.7610    1.0780 Ca        1 MOL      1.773495
    184 O25         0.3750   -0.4670    3.3010 oh        1 MOL     -0.856734
    185 H90         0.7650    0.1600    3.9090 ho        1 MOL      0.391694
    186 H91        -0.4410   -0.7410    3.7100 ho        1 MOL      0.391694
    187 O26         1.3590   -3.1680    2.4570 oh        1 MOL     -0.856734
    188 H92         2.2470   -3.1440    2.8240 ho        1 MOL      0.391694
    189 H93         0.8160   -3.5160    3.1600 ho        1 MOL      0.391694
@<TRIPOS>BOND
     1    1    2 1   
     2    1    4 1   
     3    1    5 1   
     4    1    6 1   
     5    2    3 2   
     6    2    7 1   
     7    7    8 1   
     8    7   15 1   
     9    8    9 1   
    10    8   11 1   
    11    8   16 1   
    12    9   10 2   
    13    9   19 1   
    14   11   12 1   
    15   11   17 1   
    16   11   18 1   
    17   12   13 1   
    18   12   14 1   
    19   19   20 1   
    20   19   28 1   
    21   20   21 1   
    22   20   23 1   
    23   20   29 1   
    24   21   22 2   
    25   21   41 1   
    26   23   24 1   
    27   23   30 1   
    28   23   31 1   
    29   24   25 1   
    30   24   32 1   
    31   24   33 1   
    32   25   26 1   
    33   25   34 1   
    34   25   35 1   
    35   26   27 1   
    36   26   36 1   
    37   26   37 1   
    38   27   38 1   
    39   27   39 1   
    40   27   40 1   
    41   41   42 1   
    42   41   49 1   
    43   42   43 1   
    44   42   45 1   
    45   42   50 1   
    46   43   44 2   
    47   43   53 1   
    48   45   46 1   
    49   45   51 1   
    50   45   52 1   
    51   46   47 1   
    52   46   48 1   
    53   53   54 1   
    54   53   57 1   
    55   54   55 1   
    56   54   58 1   
    57   54   59 1   
    58   55   56 2   
    59   55   60 1   
    60   60   61 1   
    61   60   68 1   
    62   61   62 1   
    63   61   64 1   
    64   61   69 1   
    65   62   63 2   
    66   62   72 1   
    67   64   65 1   
    68   64   70 1   
    69   64   71 1   
    70   65   66 1   
    71   65   67 1   
    72   72   73 1   
    73   72   76 1   
    74   73   74 1   
    75   73   77 1   
    76   73   78 1   
    77   74   75 2   
    78   74   79 1   
    79   79   80 1   
    80   79   86 1   
    81   80   81 1   
    82   80   83 1   
    83   80   87 1   
    84   81   82 2   
    85   81   93 1   
    86   83   84 1   
    87   83   85 1   
    88   83   88 1   
    89   84   90 1   
    90   84   91 1   
    91   84   92 1   
    92   85   89 1   
    93   93   94 1   
    94   93  101 1   
    95   94   95 1   
    96   94   97 1   
    97   94  102 1   
    98   95   96 2   
    99   95  112 1   
   100   97   98 1   
   101   97   99 1   
   102   97  103 1   
   103   98  100 1   
   104   98  104 1   
   105   98  105 1   
   106   99  106 1   
   107   99  107 1   
   108   99  108 1   
   109  100  109 1   
   110  100  110 1   
   111  100  111 1   
   112  112  113 1   
   113  112  119 1   
   114  113  114 1   
   115  113  116 1   
   116  113  120 1   
   117  114  115 2   
   118  114  126 1   
   119  116  117 1   
   120  116  118 1   
   121  116  121 1   
   122  117  123 1   
   123  117  124 1   
   124  117  125 1   
   125  118  122 1   
   126  126  127 1   
   127  126  133 1   
   128  127  128 1   
   129  127  130 1   
   130  127  134 1   
   131  128  129 2   
   132  128  140 1   
   133  130  131 1   
   134  130  132 1   
   135  130  135 1   
   136  131  137 1   
   137  131  138 1   
   138  131  139 1   
   139  132  136 1   
   140  140  141 1   
   141  140  149 1   
   142  141  142 1   
   143  141  144 1   
   144  141  150 1   
   145  142  143 2   
   146  142  162 1   
   147  144  145 1   
   148  144  151 1   
   149  144  152 1   
   150  145  146 1   
   151  145  153 1   
   152  145  154 1   
   153  146  147 1   
   154  146  155 1   
   155  146  156 1   
   156  147  148 1   
   157  147  157 1   
   158  147  158 1   
   159  148  159 1   
   160  148  160 1   
   161  148  161 1   
   162  162  163 1   
   163  162  171 1   
   164  163  164 1   
   165  163  166 1   
   166  163  172 1   
   167  164  165 2   
   168  164  177 1   
   169  166  167 1   
   170  166  173 1   
   171  166  174 1   
   172  167  168 1   
   173  167  175 1   
   174  167  176 1   
   175  168  169 1   
   176  168  170 1   
   177  177  178 1   
   178  177  182 1   
   179  178  179 1   
   180  178  180 1   
   181  178  181 1   
   182  184  185 1   
   183  184  186 1   
   184  187  188 1   
   185  187  189 1   
@<TRIPOS>SUBSTRUCTURE
     1 MOL         1 TEMP              0 ****  ****    0 ROOT
