@<TRIPOS>MOLECULE
MOL
  172   171     1     0     0
SMALL
resp


@<TRIPOS>ATOM
      1 C1          0.0160    4.7490    5.6160 c3        1 MOL     -0.325526
      2 C2         -0.4640    4.6440    4.1880 c         1 MOL      0.723845
      3 O1          0.2090    4.9780    3.2750 o         1 MOL     -0.551276
      4 H1         -0.6140    4.1320    6.2570 hc        1 MOL      0.071600
      5 H2          1.0480    4.4020    5.6800 hc        1 MOL      0.071600
      6 H3         -0.0400    5.7870    5.9440 hc        1 MOL      0.071600
      7 N1         -1.7000    4.2360    3.9380 n         1 MOL     -0.598968
      8 C3         -2.0970    3.7950    2.5720 c3        1 MOL      0.044420
      9 C4         -2.1300    4.9730    1.5580 c         1 MOL      0.645663
     10 O2         -2.2110    6.1550    1.8700 o         1 MOL     -0.571150
     11 C5         -3.4870    3.2190    2.7770 c3        1 MOL     -0.379496
     12 C6         -4.0920    2.4620    1.6040 c         1 MOL      0.740980
     13 O3         -5.2750    2.0890    1.7170 o         1 MOL     -0.670861
     14 O4         -3.3620    2.0880    0.6810 o         1 MOL     -0.670861
     15 H4         -2.3440    4.2100    4.7090 hn        1 MOL      0.311144
     16 H5         -1.3800    3.0500    2.2650 h1        1 MOL      0.142894
     17 H6         -4.1760    3.9820    3.1400 hc        1 MOL      0.096648
     18 H7         -3.3800    2.5010    3.5860 hc        1 MOL      0.096648
     19 N2         -2.1210    4.5900    0.2930 n         1 MOL     -0.668799
     20 C7         -2.4000    5.4990   -0.8920 c3        1 MOL      0.424625
     21 C8         -3.3930    4.8770   -1.9090 c         1 MOL      0.489268
     22 O5         -3.6750    5.5620   -2.9340 o         1 MOL     -0.579492
     23 C9         -1.0450    5.8970   -1.4870 c3        1 MOL     -0.314142
     24 H8         -2.0350    3.5970    0.0960 hn        1 MOL      0.421315
     25 H9         -2.8710    6.4040   -0.5070 h1        1 MOL     -0.016751
     26 H10        -0.5320    4.9850   -1.7710 hc        1 MOL      0.071822
     27 H11        -1.3190    6.4640   -2.3790 hc        1 MOL      0.071822
     28 H12        -0.5960    6.5700   -0.7510 hc        1 MOL      0.071822
     29 N3         -4.0270    3.6870   -1.7450 n         1 MOL     -0.682715
     30 C10        -4.8120    3.1850   -2.9090 c3        1 MOL      0.442225
     31 C11        -6.0720    2.4230   -2.4700 c         1 MOL      0.272537
     32 O6         -7.0370    2.2850   -3.2380 o         1 MOL     -0.550541
     33 C12        -3.8800    2.3870   -3.8420 c3        1 MOL     -0.303261
     34 C13        -3.1170    1.2790   -3.1210 c         1 MOL      0.750621
     35 O7         -3.7330    0.7300   -2.2040 o         1 MOL     -0.690516
     36 O8         -1.9720    0.9710   -3.4140 o         1 MOL     -0.690516
     37 H13        -3.5790    3.0770   -1.0620 hn        1 MOL      0.360227
     38 H14        -5.2160    3.9260   -3.5940 h1        1 MOL      0.024024
     39 H15        -3.2030    3.0490   -4.3920 hc        1 MOL      0.058885
     40 H16        -4.4470    1.8410   -4.5990 hc        1 MOL      0.058885
     41 N4         -6.1060    1.9320   -1.1970 n         1 MOL     -0.088705
     42 C14        -7.1860    1.1420   -0.5750 c3        1 MOL     -0.188918
     43 C15        -7.3550   -0.3080   -1.0400 c         1 MOL      0.570059
     44 O9         -8.3940   -0.8270   -0.7420 o         1 MOL     -0.621027
     45 H17        -5.2620    2.0870   -0.6660 hn        1 MOL      0.063048
     46 H18        -8.1390    1.6650   -0.6060 h1        1 MOL      0.095126
     47 H19        -6.8610    1.0160    0.4570 h1        1 MOL      0.095126
     48 N5         -6.2910   -0.8050   -1.6060 n         1 MOL     -0.214645
     49 C16        -6.2970   -2.2210   -2.1100 c3        1 MOL     -0.149959
     50 C17        -6.2310   -3.3510   -1.0310 c         1 MOL      0.467515
     51 O10        -6.1650   -4.5340   -1.3860 o         1 MOL     -0.491188
     52 C18        -5.0710   -2.2890   -3.0410 c3        1 MOL     -0.090412
     53 C19        -3.7480   -2.3830   -2.4220 c         1 MOL      0.544957
     54 N6         -2.7530   -2.3690   -3.2440 n         1 MOL     -0.600370
     55 O11        -3.6020   -2.2840   -1.2430 o         1 MOL     -0.479427
     56 H20        -5.4540   -0.2480   -1.5620 hn        1 MOL      0.165852
     57 H21        -7.2280   -2.2170   -2.6720 h1        1 MOL      0.138154
     58 H22        -5.1450   -1.5330   -3.8310 hc        1 MOL      0.039545
     59 H23        -5.1810   -3.2480   -3.5590 hc        1 MOL      0.039545
     60 H24        -2.9280   -2.4880   -4.2260 hn        1 MOL      0.310315
     61 H25        -1.7880   -2.3920   -2.9570 hn        1 MOL      0.310315
     62 N7         -6.4270   -2.9870    0.2840 n         1 MOL     -0.258903
     63 C20        -6.4770   -3.8900    1.4310 c3        1 MOL     -0.413673
     64 C21        -5.1910   -4.4320    2.0490 c         1 MOL      0.610070
     65 O12        -5.1380   -5.3390    2.8830 o         1 MOL     -0.569607
     66 H26        -6.3130   -2.0050    0.4890 hn        1 MOL      0.296140
     67 H27        -7.0480   -4.7220    1.0300 h1        1 MOL      0.164814
     68 H28        -6.9510   -3.2930    2.2150 h1        1 MOL      0.164814
     69 N8         -4.0760   -3.8560    1.5330 n         1 MOL     -0.343606
     70 C22        -2.6640   -4.2930    1.7460 c3        1 MOL     -0.336787
     71 C23        -1.5810   -3.1780    1.6810 c         1 MOL      0.743703
     72 O13        -1.6720   -2.1460    1.0090 o         1 MOL     -0.649883
     73 C24        -2.2540   -5.4250    0.7610 c3        1 MOL      0.751900
     74 C25        -2.7490   -6.8360    0.9950 c3        1 MOL     -0.551716
     75 O14        -2.5940   -5.0500   -0.5010 oh        1 MOL     -0.619813
     76 H29        -4.2400   -3.0760    0.9140 hn        1 MOL      0.292137
     77 H30        -2.6440   -4.7160    2.7550 h1        1 MOL      0.105631
     78 H31        -1.1690   -5.5080    0.8210 h1        1 MOL     -0.114928
     79 H32        -2.2060   -4.1910   -0.7000 ho        1 MOL      0.331100
     80 H33        -2.4880   -7.0800    2.0250 hc        1 MOL      0.131843
     81 H34        -3.8390   -6.8550    1.0170 hc        1 MOL      0.131843
     82 H35        -2.3480   -7.4890    0.2190 hc        1 MOL      0.131843
     83 N9         -0.5010   -3.4710    2.3980 n         1 MOL     -0.577843
     84 C26         0.8560   -2.7810    2.3160 c3        1 MOL      0.127939
     85 C27         1.5390   -3.1950    0.9970 c         1 MOL      0.563733
     86 O15         1.6110   -4.3480    0.6920 o         1 MOL     -0.546832
     87 C28         1.7050   -2.8980    3.6190 c3        1 MOL      0.007553
     88 C29         1.2520   -1.9030    4.7010 c3        1 MOL     -0.076960
     89 C30         3.2600   -2.9330    3.2620 c3        1 MOL     -0.217240
     90 C31         1.8760   -1.9410    6.1210 c3        1 MOL     -0.017247
     91 H36        -0.5280   -4.3730    2.8550 hn        1 MOL      0.267956
     92 H37         0.6120   -1.7180    2.2350 h1        1 MOL      0.059322
     93 H38         1.4500   -3.8710    4.0270 hc        1 MOL      0.031898
     94 H39         0.1670   -1.8900    4.8320 hc        1 MOL      0.034773
     95 H40         1.4800   -0.9050    4.3280 hc        1 MOL      0.034773
     96 H41         3.8210   -3.0200    4.1950 hc        1 MOL      0.050239
     97 H42         3.4110   -3.8440    2.6710 hc        1 MOL      0.050239
     98 H43         3.6200   -2.0930    2.6740 hc        1 MOL      0.050239
     99 H44         2.9120   -1.6140    5.9850 hc        1 MOL      0.007366
    100 H45         1.4670   -1.3650    6.9510 hc        1 MOL      0.007366
    101 H46         1.9590   -2.9680    6.4670 hc        1 MOL      0.007366
    102 N10         2.0310   -2.1990    0.2460 n         1 MOL     -0.293899
    103 C32         2.8020   -2.2600   -0.9950 c3        1 MOL      0.090714
    104 C33         4.2970   -1.8650   -0.7050 c         1 MOL      0.477510
    105 O16         4.5730   -1.2290    0.3270 o         1 MOL     -0.384008
    106 C34         2.0870   -1.3700   -2.0840 c3        1 MOL     -0.384841
    107 C35         0.6540   -1.7090   -2.2590 c         1 MOL      0.852263
    108 O17        -0.2020   -1.1260   -1.5490 o         1 MOL     -0.709831
    109 O18         0.2650   -2.4720   -3.1580 o         1 MOL     -0.709831
    110 H47         1.9400   -1.2720    0.6260 hn        1 MOL      0.162187
    111 H48         2.8160   -3.3260   -1.1950 h1        1 MOL      0.051324
    112 H49         2.6080   -1.4480   -3.0370 hc        1 MOL      0.089424
    113 H50         2.0940   -0.3370   -1.7370 hc        1 MOL      0.089424
    114 N11         5.2910   -2.1560   -1.5750 n         1 MOL     -0.616334
    115 C36         6.7010   -1.7610   -1.3400 c3        1 MOL      0.242817
    116 C37         6.7980   -0.2690   -0.9190 c         1 MOL      0.400624
    117 O19         7.2530   -0.0090    0.2000 o         1 MOL     -0.517396
    118 C38         7.7080   -2.2220   -2.4410 c3        1 MOL     -0.053249
    119 C39         9.1010   -1.8090   -2.2390 ca        1 MOL      0.123514
    120 C40         9.7510   -0.9260   -3.1360 ca        1 MOL     -0.255604
    121 C41         9.7630   -2.2880   -1.1170 ca        1 MOL     -0.255604
    122 C42        10.9950   -0.4060   -2.8390 ca        1 MOL      0.038003
    123 C43        11.0790   -1.8450   -0.8770 ca        1 MOL      0.038003
    124 C44        11.7400   -0.9700   -1.8000 ca        1 MOL     -0.262250
    125 H51         4.9920   -2.5600   -2.4490 hn        1 MOL      0.336806
    126 H52         7.0010   -2.2860   -0.4360 h1        1 MOL      0.060344
    127 H53         7.3420   -1.9720   -3.4350 hc        1 MOL      0.031831
    128 H54         7.6260   -3.3020   -2.5240 hc        1 MOL      0.031831
    129 H55         9.2370   -0.5440   -3.9960 ha        1 MOL      0.128201
    130 H56         9.2560   -2.9820   -0.4610 ha        1 MOL      0.128201
    131 H57        11.4750    0.2530   -3.5590 ha        1 MOL      0.075923
    132 H58        11.7050   -2.2550   -0.0970 ha        1 MOL      0.075923
    133 H59        12.7590   -0.6820   -1.6340 ha        1 MOL      0.135017
    134 N12         6.3400    0.7710   -1.7230 n         1 MOL     -0.093779
    135 C45         6.4530    2.1790   -1.2730 c3        1 MOL     -0.039142
    136 C46         5.5930    2.6790   -0.0540 c         1 MOL      0.385765
    137 O20         5.8360    3.7320    0.4790 o         1 MOL     -0.507974
    138 C47         6.0520    2.9840   -2.5990 c3        1 MOL     -0.218262
    139 C48         5.0600    2.0190   -3.1950 c3        1 MOL      0.168234
    140 C49         5.7810    0.6900   -3.0600 c3        1 MOL     -0.246538
    141 H60         7.4820    2.3980   -0.9800 h1        1 MOL      0.085093
    142 H61         5.5640    3.9360   -2.3870 hc        1 MOL      0.085252
    143 H62         6.9320    3.1110   -3.2290 hc        1 MOL      0.085252
    144 H63         4.1730    2.0760   -2.5710 hc        1 MOL     -0.002779
    145 H64         4.7990    2.2960   -4.2230 hc        1 MOL     -0.002779
    146 H65         5.1200   -0.1780   -3.1360 h1        1 MOL      0.080584
    147 H66         6.4910    0.7170   -3.8850 h1        1 MOL      0.080584
    148 N13         4.5570    1.9470    0.3620 n         1 MOL     -0.047149
    149 C50         3.7130    2.1640    1.5160 c3        1 MOL     -0.289546
    150 C51         4.5900    1.7240    2.7250 c         1 MOL      0.476708
    151 O21         4.7150    2.4400    3.7130 o         1 MOL     -0.543334
    152 C52         2.2970    1.5790    1.4180 c3        1 MOL      0.002115
    153 C53         1.4830    2.2150    0.3200 c3        1 MOL      0.043477
    154 C54         0.0650    1.6750    0.3280 c         1 MOL      0.548343
    155 O22        -0.6010    2.1790   -0.5690 o         1 MOL     -0.728200
    156 O23        -0.4160    0.8460    1.1500 o         1 MOL     -0.728200
    157 H67         4.4370    1.0530   -0.0880 hn        1 MOL      0.178535
    158 H68         3.6090    3.2550    1.5520 h1        1 MOL      0.150886
    159 H69         1.8280    1.6190    2.4070 hc        1 MOL      0.041169
    160 H70         2.4200    0.5300    1.1620 hc        1 MOL      0.041169
    161 H71         1.9280    2.0170   -0.6550 hc        1 MOL      0.027843
    162 H72         1.5280    3.3010    0.4080 hc        1 MOL      0.027843
    163 N14         5.3220    0.6050    2.6030 n         1 MOL     -0.082275
    164 C55         6.2210    0.1320    3.6660 c3        1 MOL     -0.141447
    165 H73         6.0580    0.7220    4.5680 h1        1 MOL      0.064097
    166 H74         6.0140   -0.9180    3.8770 h1        1 MOL      0.064097
    167 H75         7.2560    0.2410    3.3430 h1        1 MOL      0.064097
    168 H76         5.0380    0.0290    1.8150 hn        1 MOL      0.090277
    169 Ca1        -2.2410    0.0060   -0.4250 Ca        1 MOL      1.672132
    170 O24        -4.4010   -0.4880    1.2950 oh        1 MOL     -0.847093
    171 H77        -4.7860    0.3760    1.3920 ho        1 MOL      0.395595
    172 H78        -4.2120   -0.7740    2.1840 ho        1 MOL      0.395595
@<TRIPOS>BOND
     1    1    2 1   
     2    1    4 1   
     3    1    5 1   
     4    1    6 1   
     5    2    3 2   
     6    2    7 1   
     7    7    8 1   
     8    7   15 1   
     9    8    9 1   
    10    8   11 1   
    11    8   16 1   
    12    9   10 2   
    13    9   19 1   
    14   11   12 1   
    15   11   17 1   
    16   11   18 1   
    17   12   13 1   
    18   12   14 1   
    19   19   20 1   
    20   19   24 1   
    21   20   21 1   
    22   20   23 1   
    23   20   25 1   
    24   21   22 2   
    25   21   29 1   
    26   23   26 1   
    27   23   27 1   
    28   23   28 1   
    29   29   30 1   
    30   29   37 1   
    31   30   31 1   
    32   30   33 1   
    33   30   38 1   
    34   31   32 2   
    35   31   41 1   
    36   33   34 1   
    37   33   39 1   
    38   33   40 1   
    39   34   35 1   
    40   34   36 1   
    41   41   42 1   
    42   41   45 1   
    43   42   43 1   
    44   42   46 1   
    45   42   47 1   
    46   43   44 2   
    47   43   48 1   
    48   48   49 1   
    49   48   56 1   
    50   49   50 1   
    51   49   52 1   
    52   49   57 1   
    53   50   51 2   
    54   50   62 1   
    55   52   53 1   
    56   52   58 1   
    57   52   59 1   
    58   53   54 1   
    59   53   55 2   
    60   54   60 1   
    61   54   61 1   
    62   62   63 1   
    63   62   66 1   
    64   63   64 1   
    65   63   67 1   
    66   63   68 1   
    67   64   65 2   
    68   64   69 1   
    69   69   70 1   
    70   69   76 1   
    71   70   71 1   
    72   70   73 1   
    73   70   77 1   
    74   71   72 2   
    75   71   83 1   
    76   73   74 1   
    77   73   75 1   
    78   73   78 1   
    79   74   80 1   
    80   74   81 1   
    81   74   82 1   
    82   75   79 1   
    83   83   84 1   
    84   83   91 1   
    85   84   85 1   
    86   84   87 1   
    87   84   92 1   
    88   85   86 2   
    89   85  102 1   
    90   87   88 1   
    91   87   89 1   
    92   87   93 1   
    93   88   90 1   
    94   88   94 1   
    95   88   95 1   
    96   89   96 1   
    97   89   97 1   
    98   89   98 1   
    99   90   99 1   
   100   90  100 1   
   101   90  101 1   
   102  102  103 1   
   103  102  110 1   
   104  103  104 1   
   105  103  106 1   
   106  103  111 1   
   107  104  105 2   
   108  104  114 1   
   109  106  107 1   
   110  106  112 1   
   111  106  113 1   
   112  107  108 1   
   113  107  109 1   
   114  114  115 1   
   115  114  125 1   
   116  115  116 1   
   117  115  118 1   
   118  115  126 1   
   119  116  117 2   
   120  116  134 1   
   121  118  119 1   
   122  118  127 1   
   123  118  128 1   
   124  119  120 ar  
   125  119  121 ar  
   126  120  122 ar  
   127  120  129 1   
   128  121  123 ar  
   129  121  130 1   
   130  122  124 ar  
   131  122  131 1   
   132  123  124 ar  
   133  123  132 1   
   134  124  133 1   
   135  134  135 1   
   136  134  140 1   
   137  135  136 1   
   138  135  138 1   
   139  135  141 1   
   140  136  137 2   
   141  136  148 1   
   142  138  139 1   
   143  138  142 1   
   144  138  143 1   
   145  139  140 1   
   146  139  144 1   
   147  139  145 1   
   148  140  146 1   
   149  140  147 1   
   150  148  149 1   
   151  148  157 1   
   152  149  150 1   
   153  149  152 1   
   154  149  158 1   
   155  150  151 2   
   156  150  163 1   
   157  152  153 1   
   158  152  159 1   
   159  152  160 1   
   160  153  154 1   
   161  153  161 1   
   162  153  162 1   
   163  154  155 1   
   164  154  156 1   
   165  163  164 1   
   166  163  168 1   
   167  164  165 1   
   168  164  166 1   
   169  164  167 1   
   170  170  171 1   
   171  170  172 1   
@<TRIPOS>SUBSTRUCTURE
     1 MOL         1 TEMP              0 ****  ****    0 ROOT
