@<TRIPOS>MOLECULE
MOL
  175   173     1     0     0
SMALL
resp


@<TRIPOS>ATOM
      1 C1          0.7400    4.1170    5.0800 c3        1 MOL     -0.405907
      2 C2          0.1230    3.9490    3.7450 c         1 MOL      0.753735
      3 O1          0.7840    4.0350    2.7690 o         1 MOL     -0.516369
      4 H1          1.8230    4.1860    4.9730 hc        1 MOL      0.098993
      5 H2          0.3620    5.0270    5.5440 hc        1 MOL      0.098993
      6 H3          0.4920    3.2590    5.7060 hc        1 MOL      0.098993
      7 N1         -1.2370    3.8530    3.6670 n         1 MOL     -0.749108
      8 C3         -2.0500    3.6220    2.4790 c3        1 MOL      0.336496
      9 C4         -2.1780    4.8400    1.5570 c         1 MOL      0.573194
     10 O2         -2.0550    5.9470    1.9910 o         1 MOL     -0.568586
     11 C5         -3.4050    3.1170    2.8540 c3        1 MOL     -0.438143
     12 C6         -4.2070    2.3880    1.7520 c         1 MOL      0.819465
     13 O3         -5.4370    2.1800    1.9000 o         1 MOL     -0.697632
     14 O4         -3.6790    2.0340    0.6840 o         1 MOL     -0.697632
     15 H4         -1.7010    3.9010    4.5690 hn        1 MOL      0.323760
     16 H5         -1.4940    2.8480    1.9600 h1        1 MOL      0.049609
     17 H6         -3.9890    3.9520    3.2570 hc        1 MOL      0.091809
     18 H7         -3.3850    2.4020    3.6710 hc        1 MOL      0.091809
     19 N2         -2.4680    4.5440    0.3200 n         1 MOL     -0.564500
     20 C7         -2.8530    5.4210   -0.7340 c3        1 MOL      0.304884
     21 C8         -3.8240    4.8910   -1.8440 c         1 MOL      0.224311
     22 O5         -4.0140    5.6100   -2.8550 o         1 MOL     -0.511094
     23 C9         -1.5670    5.5750   -1.4930 c3        1 MOL     -0.322574
     24 H8         -2.2920    3.5800    0.0950 hn        1 MOL      0.369671
     25 H9         -3.1530    6.4110   -0.3790 h1        1 MOL      0.033864
     26 H10        -1.2650    4.6130   -1.9090 hc        1 MOL      0.088143
     27 H11        -1.7110    6.3660   -2.2310 hc        1 MOL      0.088143
     28 H12        -0.7890    5.8990   -0.8080 hc        1 MOL      0.088143
     29 N3         -4.4280    3.7080   -1.7170 n         1 MOL     -0.104182
     30 C10        -5.3750    3.1720   -2.7820 c3        1 MOL      0.105722
     31 C11        -6.5380    2.3760   -2.1620 c         1 MOL      0.225000
     32 O6         -7.5690    2.1740   -2.8010 o         1 MOL     -0.508311
     33 C12        -4.6140    2.2510   -3.7430 c3        1 MOL      0.053276
     34 C13        -3.4680    1.4410   -3.1180 c         1 MOL      0.597335
     35 O7         -2.3280    1.5380   -3.6000 o         1 MOL     -0.634887
     36 O8         -3.6920    0.7870   -2.0290 o         1 MOL     -0.634887
     37 H13        -4.3260    3.1850   -0.8620 hn        1 MOL      0.048105
     38 H14        -5.6840    4.0510   -3.3550 h1        1 MOL      0.060331
     39 H15        -4.2320    2.8550   -4.5800 hc        1 MOL     -0.029012
     40 H16        -5.3060    1.5010   -4.1040 hc        1 MOL     -0.029012
     41 N4         -6.3350    1.9170   -0.9110 n         1 MOL     -0.059152
     42 C14        -7.3090    1.0830   -0.3080 c3        1 MOL     -0.226762
     43 C15        -7.2070   -0.3830   -0.7460 c         1 MOL      0.498847
     44 O9         -8.1080   -1.1290   -0.3620 o         1 MOL     -0.625876
     45 H17        -5.5080    2.2250   -0.4200 hn        1 MOL      0.144867
     46 H18        -8.3040    1.5170   -0.4330 h1        1 MOL      0.123523
     47 H19        -7.1070    1.0830    0.7560 h1        1 MOL      0.123523
     48 N5         -6.1370   -0.8500   -1.4010 n         1 MOL     -0.258414
     49 C16        -6.0800   -2.2520   -1.9180 c3        1 MOL      0.044494
     50 C17        -6.1240   -3.3380   -0.7920 c         1 MOL      0.413662
     51 O10        -5.9490   -4.4920   -1.1220 o         1 MOL     -0.545649
     52 C18        -5.0200   -2.4760   -3.0290 c3        1 MOL     -0.193510
     53 C19        -3.6220   -2.5700   -2.5000 c         1 MOL      0.676309
     54 N6         -2.6410   -2.9740   -3.2410 n         1 MOL     -0.648628
     55 O11        -3.3960   -2.2010   -1.3250 o         1 MOL     -0.806856
     56 H20        -5.3090   -0.2950   -1.5470 hn        1 MOL      0.246778
     57 H21        -7.0470   -2.4260   -2.3820 h1        1 MOL      0.078029
     58 H22        -5.0980   -1.5930   -3.6710 hc        1 MOL      0.067897
     59 H23        -5.2510   -3.3000   -3.7030 hc        1 MOL      0.067897
     60 H24        -2.7970   -3.3470   -4.1690 hn        1 MOL      0.341338
     61 H25        -1.7160   -2.7170   -2.9360 hn        1 MOL      0.341338
     62 N7         -6.2200   -2.9400    0.4770 n         1 MOL     -0.117720
     63 C20        -6.2350   -3.8660    1.6510 c3        1 MOL     -0.335601
     64 C21        -4.8240   -4.4180    1.9820 c         1 MOL      0.579137
     65 O12        -4.5790   -5.1950    2.9620 o         1 MOL     -0.585474
     66 H26        -6.4810   -1.9650    0.5640 hn        1 MOL      0.241749
     67 H27        -6.9280   -4.6710    1.3910 h1        1 MOL      0.136920
     68 H28        -6.6650   -3.4060    2.5340 h1        1 MOL      0.136920
     69 N8         -3.8190   -3.9450    1.2370 n         1 MOL     -0.300988
     70 C22        -2.4470   -4.5360    1.4800 c3        1 MOL     -0.266442
     71 C23        -1.4060   -3.3320    1.5250 c         1 MOL      0.622795
     72 O13        -1.5500   -2.2930    0.8820 o         1 MOL     -0.623055
     73 C24        -1.9740   -5.4390    0.3340 c3        1 MOL      0.552199
     74 C25        -2.7790   -6.6770    0.3430 c3        1 MOL     -0.422999
     75 O14        -2.1120   -4.8470   -0.8920 oh        1 MOL     -0.609795
     76 H29        -3.9960   -3.5140    0.3370 hn        1 MOL      0.341597
     77 H30        -2.4130   -4.9940    2.4660 h1        1 MOL      0.139099
     78 H31        -0.9090   -5.6370    0.4450 h1        1 MOL     -0.031008
     79 H32        -2.2330   -3.9000   -0.7700 ho        1 MOL      0.409123
     80 H33        -2.2540   -7.3270   -0.3530 hc        1 MOL      0.091396
     81 H34        -2.6460   -7.1710    1.3060 hc        1 MOL      0.091396
     82 H35        -3.8500   -6.5270    0.1900 hc        1 MOL      0.091396
     83 N9         -0.2980   -3.5430    2.1920 n         1 MOL     -0.495300
     84 C26         0.9030   -2.7720    2.0560 c3        1 MOL      0.212985
     85 C27         1.6460   -3.0750    0.7650 c         1 MOL      0.386609
     86 O15         2.0110   -4.2000    0.4200 o         1 MOL     -0.550547
     87 C28         1.7760   -2.8740    3.3430 c3        1 MOL     -0.140871
     88 C29         1.3870   -1.6880    4.3970 c3        1 MOL      0.129529
     89 C30         3.2710   -2.8150    3.1290 c3        1 MOL     -0.073254
     90 C31         2.0890   -1.8090    5.8250 c3        1 MOL     -0.204307
     91 H36        -0.1490   -4.4580    2.5930 hn        1 MOL      0.237374
     92 H37         0.7270   -1.7040    1.9370 h1        1 MOL      0.123614
     93 H38         1.6540   -3.8590    3.7850 hc        1 MOL      0.054450
     94 H39         0.3060   -1.6450    4.4430 hc        1 MOL     -0.039110
     95 H40         1.6710   -0.7660    3.8920 hc        1 MOL     -0.039110
     96 H41         3.6200   -3.6170    2.4710 hc        1 MOL      0.018648
     97 H42         3.5030   -1.8220    2.7380 hc        1 MOL      0.018648
     98 H43         3.8310   -3.0340    4.0320 hc        1 MOL      0.018648
     99 H44         1.9230   -0.9910    6.5270 hc        1 MOL      0.048127
    100 H45         1.7860   -2.7960    6.1830 hc        1 MOL      0.048127
    101 H46         3.1670   -1.8140    5.6460 hc        1 MOL      0.048127
    102 N10         1.8000   -1.9830    0.0050 n         1 MOL     -0.111111
    103 C32         2.6670   -1.9000   -1.1770 c3        1 MOL      0.096771
    104 C33         4.1470   -1.3780   -0.9100 c         1 MOL      0.366585
    105 O16         4.3790   -0.8500    0.1160 o         1 MOL     -0.286941
    106 C34         2.0390   -1.1120   -2.3490 c3        1 MOL     -0.098204
    107 C35         0.5310   -1.4060   -2.6190 c         1 MOL      0.621576
    108 O17        -0.3410   -0.9730   -1.8270 o         1 MOL     -0.643496
    109 O18         0.3000   -2.0230   -3.6560 o         1 MOL     -0.643496
    110 H47         1.3140   -1.1240    0.2530 hn        1 MOL      0.037919
    111 H48         2.7570   -2.9330   -1.5010 h1        1 MOL      0.034759
    112 H49         2.5700   -1.4070   -3.2520 hc        1 MOL      0.023407
    113 H50         2.0470   -0.0520   -2.1090 hc        1 MOL      0.023407
    114 N11         5.1130   -1.5140   -1.8740 n         1 MOL     -0.605506
    115 C36         6.5020   -1.2600   -1.6260 c3        1 MOL      0.369601
    116 C37         6.7540    0.1990   -1.2040 c         1 MOL      0.252022
    117 O19         7.5060    0.3800   -0.2100 o         1 MOL     -0.495286
    118 C38         7.3660   -1.7490   -2.7970 c3        1 MOL     -0.113286
    119 C39         8.8270   -1.6180   -2.4770 ca        1 MOL     -0.043494
    120 C40         9.3820   -2.3930   -1.5010 ca        1 MOL     -0.063034
    121 C41         9.6690   -0.6120   -3.1220 ca        1 MOL     -0.063034
    122 C42        10.7560   -2.3890   -1.2600 ca        1 MOL     -0.161973
    123 C43        11.0600   -0.6180   -2.8680 ca        1 MOL     -0.161973
    124 C44        11.6160   -1.4900   -1.9340 ca        1 MOL     -0.066005
    125 H51         4.8990   -1.9780   -2.7430 hn        1 MOL      0.306255
    126 H52         6.7680   -1.9180   -0.8040 h1        1 MOL      0.043835
    127 H53         7.0920   -1.2240   -3.7040 hc        1 MOL      0.051760
    128 H54         7.1390   -2.7960   -2.9850 hc        1 MOL      0.051760
    129 H55         8.7510   -3.1550   -1.0780 ha        1 MOL      0.091008
    130 H56         9.2480    0.0290   -3.8920 ha        1 MOL      0.091008
    131 H57        11.2530   -3.0070   -0.5270 ha        1 MOL      0.109947
    132 H58        11.7920   -0.0210   -3.3860 ha        1 MOL      0.109947
    133 H59        12.6500   -1.5870   -1.6750 ha        1 MOL      0.096603
    134 N12         6.1810    1.2900   -1.7920 n         1 MOL     -0.101606
    135 C45         6.3480    2.6730   -1.3050 c3        1 MOL      0.297330
    136 C46         5.8720    2.8100    0.1850 c         1 MOL      0.243308
    137 O20         6.3830    3.5870    0.9400 o         1 MOL     -0.488785
    138 C47         5.6080    3.5240   -2.2320 c3        1 MOL     -0.349494
    139 C48         4.5430    2.6430   -2.8760 c3        1 MOL      0.095262
    140 C49         5.2210    1.2830   -2.9030 c3        1 MOL     -0.180584
    141 H60         7.4170    2.9020   -1.3200 h1        1 MOL      0.013180
    142 H61         5.1780    4.3690   -1.6990 hc        1 MOL      0.099134
    143 H62         6.3540    3.8340   -2.9660 hc        1 MOL      0.099134
    144 H63         3.6330    2.5650   -2.2810 hc        1 MOL      0.031847
    145 H64         4.2630    2.9470   -3.8890 hc        1 MOL      0.031847
    146 H65         4.3120    0.7100   -2.7420 h1        1 MOL      0.071368
    147 H66         5.7910    1.1720   -3.8170 h1        1 MOL      0.071368
    148 N13         4.7610    2.1150    0.5520 n         1 MOL     -0.034401
    149 C50         4.1220    2.0060    1.8570 c3        1 MOL     -0.193158
    150 C51         4.9090    1.2510    2.9260 c         1 MOL      0.536947
    151 O21         4.8890    1.5780    4.0760 o         1 MOL     -0.576611
    152 C52         2.6600    1.3930    1.7340 c3        1 MOL     -0.140211
    153 C53         1.8510    2.0420    0.5980 c3        1 MOL     -0.023544
    154 C54         0.5070    1.4900    0.5070 c         1 MOL      0.792793
    155 O22         0.0710    0.5260    1.1770 o         1 MOL     -0.791314
    156 O23        -0.3360    1.9960   -0.2700 o         1 MOL     -0.791314
    157 H67         4.4930    1.4480   -0.1570 hn        1 MOL      0.116660
    158 H68         4.1180    3.0060    2.3070 h1        1 MOL      0.118341
    159 H69         2.1520    1.6290    2.6610 hc        1 MOL      0.086816
    160 H70         2.7190    0.3130    1.5770 hc        1 MOL      0.086816
    161 H71         2.3060    1.9060   -0.3780 hc        1 MOL      0.030846
    162 H72         1.7100    3.1160    0.6890 hc        1 MOL      0.030846
    163 N14         5.5660    0.1870    2.5330 n         1 MOL     -0.063931
    164 C55         6.6280   -0.5220    3.3480 c3        1 MOL     -0.240503
    165 H73         7.6160   -0.2010    3.0150 h1        1 MOL      0.088231
    166 H74         6.5030   -0.2750    4.4020 h1        1 MOL      0.088231
    167 H75         6.5320   -1.5990    3.2130 h1        1 MOL      0.088231
    168 H76         5.3230   -0.2490    1.6490 hn        1 MOL      0.076060
    169 Ca1        -2.1000    0.0240   -0.2440 Ca        1 MOL      1.676940
    170 O24        -4.3470   -0.4540    1.1280 oh        1 MOL     -0.777902
    171 H77        -4.7650   -0.6470    1.9640 ho        1 MOL      0.369939
    172 H78        -4.4320    0.4870    1.0240 ho        1 MOL      0.369939
    173 O25        -1.9310    0.3670    2.7300 oh        1 MOL     -0.777902
    174 H79        -1.0460    0.4770    2.3750 ho        1 MOL      0.369939
    175 H80        -1.8900    0.7600    3.5970 ho        1 MOL      0.369939
@<TRIPOS>BOND
     1    1    2 1   
     2    1    4 1   
     3    1    5 1   
     4    1    6 1   
     5    2    3 2   
     6    2    7 1   
     7    7    8 1   
     8    7   15 1   
     9    8    9 1   
    10    8   11 1   
    11    8   16 1   
    12    9   10 2   
    13    9   19 1   
    14   11   12 1   
    15   11   17 1   
    16   11   18 1   
    17   12   13 1   
    18   12   14 1   
    19   19   20 1   
    20   19   24 1   
    21   20   21 1   
    22   20   23 1   
    23   20   25 1   
    24   21   22 2   
    25   21   29 1   
    26   23   26 1   
    27   23   27 1   
    28   23   28 1   
    29   29   30 1   
    30   29   37 1   
    31   30   31 1   
    32   30   33 1   
    33   30   38 1   
    34   31   32 2   
    35   31   41 1   
    36   33   34 1   
    37   33   39 1   
    38   33   40 1   
    39   34   35 1   
    40   34   36 1   
    41   41   42 1   
    42   41   45 1   
    43   42   43 1   
    44   42   46 1   
    45   42   47 1   
    46   43   44 2   
    47   43   48 1   
    48   48   49 1   
    49   48   56 1   
    50   49   50 1   
    51   49   52 1   
    52   49   57 1   
    53   50   51 2   
    54   50   62 1   
    55   52   53 1   
    56   52   58 1   
    57   52   59 1   
    58   53   54 1   
    59   53   55 2   
    60   54   60 1   
    61   54   61 1   
    62   62   63 1   
    63   62   66 1   
    64   63   64 1   
    65   63   67 1   
    66   63   68 1   
    67   64   65 2   
    68   64   69 1   
    69   69   70 1   
    70   69   76 1   
    71   70   71 1   
    72   70   73 1   
    73   70   77 1   
    74   71   72 2   
    75   71   83 1   
    76   73   74 1   
    77   73   75 1   
    78   73   78 1   
    79   74   80 1   
    80   74   81 1   
    81   74   82 1   
    82   75   79 1   
    83   83   84 1   
    84   83   91 1   
    85   84   85 1   
    86   84   87 1   
    87   84   92 1   
    88   85   86 2   
    89   85  102 1   
    90   87   88 1   
    91   87   89 1   
    92   87   93 1   
    93   88   90 1   
    94   88   94 1   
    95   88   95 1   
    96   89   96 1   
    97   89   97 1   
    98   89   98 1   
    99   90   99 1   
   100   90  100 1   
   101   90  101 1   
   102  102  103 1   
   103  102  110 1   
   104  103  104 1   
   105  103  106 1   
   106  103  111 1   
   107  104  105 2   
   108  104  114 1   
   109  106  107 1   
   110  106  112 1   
   111  106  113 1   
   112  107  108 1   
   113  107  109 1   
   114  114  115 1   
   115  114  125 1   
   116  115  116 1   
   117  115  118 1   
   118  115  126 1   
   119  116  117 2   
   120  116  134 1   
   121  118  119 1   
   122  118  127 1   
   123  118  128 1   
   124  119  120 ar  
   125  119  121 ar  
   126  120  122 ar  
   127  120  129 1   
   128  121  123 ar  
   129  121  130 1   
   130  122  124 ar  
   131  122  131 1   
   132  123  124 ar  
   133  123  132 1   
   134  124  133 1   
   135  134  135 1   
   136  134  140 1   
   137  135  136 1   
   138  135  138 1   
   139  135  141 1   
   140  136  137 2   
   141  136  148 1   
   142  138  139 1   
   143  138  142 1   
   144  138  143 1   
   145  139  140 1   
   146  139  144 1   
   147  139  145 1   
   148  140  146 1   
   149  140  147 1   
   150  148  149 1   
   151  148  157 1   
   152  149  150 1   
   153  149  152 1   
   154  149  158 1   
   155  150  151 2   
   156  150  163 1   
   157  152  153 1   
   158  152  159 1   
   159  152  160 1   
   160  153  154 1   
   161  153  161 1   
   162  153  162 1   
   163  154  155 1   
   164  154  156 1   
   165  163  164 1   
   166  163  168 1   
   167  164  165 1   
   168  164  166 1   
   169  164  167 1   
   170  170  171 1   
   171  170  172 1   
   172  173  174 1   
   173  173  175 1   
@<TRIPOS>SUBSTRUCTURE
     1 MOL         1 TEMP              0 ****  ****    0 ROOT
