@<TRIPOS>MOLECULE
MOL
  186   183     1     0     0
SMALL
resp


@<TRIPOS>ATOM
      1 C1          1.9170   -0.7820    6.7440 c3        1 MOL     -0.173263
      2 C2          1.9590   -1.1420    5.2190 c         1 MOL      0.661296
      3 O1          0.9770   -1.7230    4.7250 o         1 MOL     -0.548452
      4 H1          0.8890   -0.8370    7.1020 hc        1 MOL      0.032966
      5 H2          2.5330   -1.4870    7.3010 hc        1 MOL      0.032966
      6 H3          2.2980    0.2300    6.8890 hc        1 MOL      0.032966
      7 N1          2.9240   -0.6030    4.4010 n         1 MOL     -0.531424
      8 C3          3.1700   -0.9830    2.9730 c3        1 MOL      0.035618
      9 C4          3.5450   -2.4610    2.7740 c         1 MOL      0.428807
     10 O2          4.4810   -3.0470    3.2800 o         1 MOL     -0.572215
     11 C5          4.3260   -0.0520    2.5550 c3        1 MOL     -0.275048
     12 C6          5.0410   -0.5800    1.2880 c         1 MOL      0.797627
     13 O3          6.2780   -0.5680    1.1690 o         1 MOL     -0.670223
     14 O4          4.3080   -0.7500    0.3160 o         1 MOL     -0.670223
     15 H4          3.6170    0.0390    4.7480 hn        1 MOL      0.294900
     16 H5          2.2430   -0.6630    2.5080 h1        1 MOL      0.062517
     17 H6          5.0950   -0.0710    3.3360 hc        1 MOL      0.056327
     18 H7          3.9910    0.9840    2.5660 hc        1 MOL      0.056327
     19 N2          2.6760   -3.0650    2.0380 n         1 MOL      0.027898
     20 C7          2.6910   -4.4930    1.6640 c3        1 MOL      0.027739
     21 C8          3.6710   -4.7970    0.5650 c         1 MOL      0.417484
     22 O5          4.4850   -5.7350    0.6450 o         1 MOL     -0.574467
     23 C9          1.2830   -5.0770    1.4200 c3        1 MOL      0.467111
     24 C10         0.3180   -4.7580    2.5220 c3        1 MOL      0.156543
     25 C11         1.3530   -6.5700    1.0930 c3        1 MOL     -0.435760
     26 C12         0.8450   -4.9230    3.9190 c3        1 MOL     -0.224503
     27 H8          1.9610   -2.4410    1.6770 hn        1 MOL      0.052039
     28 H9          3.0300   -5.0570    2.5320 h1        1 MOL     -0.019032
     29 H10         0.8690   -4.6130    0.5290 hc        1 MOL     -0.101400
     30 H11        -0.5070   -5.4520    2.3230 hc        1 MOL     -0.053272
     31 H12        -0.2110   -3.8190    2.3350 hc        1 MOL     -0.053272
     32 H13         1.9540   -7.1160    1.8200 hc        1 MOL      0.081960
     33 H14         0.3070   -6.8720    1.0450 hc        1 MOL      0.081960
     34 H15         1.7750   -6.7160    0.1000 hc        1 MOL      0.081960
     35 H16         1.2450   -5.9390    3.9910 hc        1 MOL      0.025735
     36 H17         1.5230   -4.1450    4.2670 hc        1 MOL      0.025735
     37 H18        -0.0070   -4.8710    4.5950 hc        1 MOL      0.025735
     38 N3          3.5520   -4.0470   -0.5650 n         1 MOL     -0.240866
     39 C13         4.2710   -4.4930   -1.8160 c3        1 MOL     -0.073409
     40 C14         5.5340   -3.6640   -2.1950 c         1 MOL      0.497353
     41 O6          6.1080   -3.6490   -3.2820 o         1 MOL     -0.523180
     42 C15         3.2490   -4.5640   -2.9870 c3        1 MOL     -0.081926
     43 C16         2.4460   -3.2150   -3.1060 c         1 MOL      0.781996
     44 O7          1.5430   -3.2500   -4.0050 o         1 MOL     -0.723788
     45 O8          2.6130   -2.2830   -2.3100 o         1 MOL     -0.723788
     46 H19         2.9080   -3.2730   -0.5700 hn        1 MOL      0.116526
     47 H20         4.7650   -5.4510   -1.6730 h1        1 MOL      0.092794
     48 H21         2.6110   -5.4330   -2.8630 hc        1 MOL      0.014076
     49 H22         3.8020   -4.6600   -3.9280 hc        1 MOL      0.014076
     50 N4          6.0950   -3.0000   -1.1830 n         1 MOL     -0.281193
     51 C17         7.4880   -2.4610   -1.1520 c3        1 MOL     -0.089023
     52 C18         7.7700   -1.0960   -1.8790 c         1 MOL      0.495397
     53 O9          8.6670   -1.0330   -2.7450 o         1 MOL     -0.585694
     54 H23         5.4890   -2.7880   -0.4000 hn        1 MOL      0.235525
     55 H24         8.2040   -3.1990   -1.5140 h1        1 MOL      0.062565
     56 H25         7.8050   -2.3570   -0.1100 h1        1 MOL      0.062565
     57 N5          6.9860   -0.0860   -1.5490 n         1 MOL     -0.257339
     58 C19         7.0650    1.2730   -2.1700 c3        1 MOL      0.243031
     59 C20         7.1410    2.4350   -1.1520 c         1 MOL      0.299594
     60 O10         7.4960    3.5230   -1.5640 o         1 MOL     -0.550716
     61 C21         5.8840    1.5470   -3.1380 c3        1 MOL     -0.235774
     62 C22         4.5900    1.1760   -2.4500 c         1 MOL      0.650704
     63 O11         4.0010    0.1220   -2.8130 o         1 MOL     -0.664818
     64 O12         4.0770    1.9040   -1.5550 o         1 MOL     -0.664818
     65 H26         6.2660   -0.2580   -0.8540 hn        1 MOL      0.124130
     66 H27         8.0120    1.3750   -2.6910 h1        1 MOL      0.015314
     67 H28         6.0510    0.9310   -4.0190 hc        1 MOL      0.063515
     68 H29         5.8160    2.6050   -3.4040 hc        1 MOL      0.063515
     69 N6          6.8670    2.1570    0.0480 n         1 MOL     -0.134648
     70 C23         6.8790    3.1780    1.1020 c3        1 MOL     -0.031441
     71 C24         5.5170    3.8750    1.4100 c         1 MOL      0.407948
     72 O13         5.5530    4.7650    2.2400 o         1 MOL     -0.574843
     73 H30         6.8120    1.2060    0.3950 hn        1 MOL      0.161325
     74 H31         7.5670    3.9560    0.7740 h1        1 MOL      0.059696
     75 H32         7.2630    2.6780    1.9960 h1        1 MOL      0.059696
     76 N7          4.4220    3.6960    0.5930 n         1 MOL     -0.137405
     77 C25         3.0780    4.2820    0.7270 c3        1 MOL      0.062088
     78 C26         2.0280    3.1700    0.9270 c         1 MOL      0.583483
     79 O14         2.2800    1.9910    0.5520 o         1 MOL     -0.700890
     80 C27         2.8250    5.0970   -0.4730 c3        1 MOL      0.063743
     81 C28         3.6980    6.3610   -0.4980 c3        1 MOL     -0.339907
     82 C29         3.1180    7.6050   -1.0890 c         1 MOL      0.798410
     83 N8          3.8840    8.6840   -1.1820 n         1 MOL     -0.888167
     84 O15         2.0080    7.6800   -1.5480 o         1 MOL     -0.577263
     85 H33         4.5180    2.9000   -0.0310 hn        1 MOL      0.151525
     86 H34         3.0040    4.8720    1.6320 h1        1 MOL      0.022932
     87 H35         1.8070    5.4680   -0.4670 hc        1 MOL      0.002551
     88 H36         2.9770    4.5440   -1.4070 hc        1 MOL      0.002551
     89 H37         4.5420    5.9790   -1.0780 hc        1 MOL      0.094202
     90 H38         4.0000    6.6820    0.4880 hc        1 MOL      0.094202
     91 H39         4.8370    8.6610   -0.8360 hn        1 MOL      0.363205
     92 H40         3.6350    9.4770   -1.7660 hn        1 MOL      0.363205
     93 N9          0.8450    3.5900    1.3470 n         1 MOL     -0.535812
     94 C30        -0.3060    2.6750    1.6650 c3        1 MOL      0.043694
     95 C31        -1.5110    3.0350    0.7690 c         1 MOL      0.515273
     96 O16        -2.2250    4.0210    1.0620 o         1 MOL     -0.583923
     97 C32        -0.7050    2.9310    3.1350 c3        1 MOL      0.271012
     98 C33        -1.9560    2.2340    3.6500 c3        1 MOL     -0.405086
     99 C34         0.4420    2.3210    3.9780 c3        1 MOL     -0.405086
    100 H41         0.6740    4.5810    1.4410 hn        1 MOL      0.329906
    101 H42         0.0620    1.6650    1.5210 h1        1 MOL      0.156679
    102 H43        -0.7280    4.0190    3.2530 hc        1 MOL     -0.036973
    103 H44        -2.1500    2.7430    4.5960 hc        1 MOL      0.096288
    104 H45        -2.8660    2.3360    3.0490 hc        1 MOL      0.096288
    105 H46        -1.7770    1.1630    3.7510 hc        1 MOL      0.096288
    106 H47         1.3470    2.9350    3.9000 hc        1 MOL      0.096288
    107 H48         0.1490    2.2760    5.0330 hc        1 MOL      0.096288
    108 H49         0.6830    1.3310    3.6020 hc        1 MOL      0.096288
    109 N10        -1.6980    2.2360   -0.2460 n         1 MOL     -0.391675
    110 C35        -2.9140    2.1550   -1.1120 c3        1 MOL      0.043964
    111 C36        -4.2250    1.8370   -0.3210 c         1 MOL      0.362018
    112 O17        -4.1380    1.1350    0.6380 o         1 MOL     -0.228907
    113 C37        -2.5780    1.1010   -2.2280 c3        1 MOL     -0.469687
    114 C38        -3.6380    1.2110   -3.2620 c         1 MOL      0.645927
    115 N11        -3.7500    2.2760   -4.0070 n         1 MOL     -0.768212
    116 O18        -4.4970    0.3100   -3.3440 o         1 MOL     -0.466492
    117 H50        -1.0870    1.4410   -0.3180 hn        1 MOL      0.260770
    118 H51        -3.0650    3.1170   -1.6000 h1        1 MOL      0.067360
    119 H52        -2.5870    0.0990   -1.7970 hc        1 MOL      0.222388
    120 H53        -1.6360    1.2000   -2.7710 hc        1 MOL      0.222388
    121 H54        -3.3210    3.1620   -3.7850 hn        1 MOL      0.362691
    122 H55        -4.4470    2.1670   -4.7320 hn        1 MOL      0.362691
    123 N12        -5.3760    2.2850   -0.8140 n         1 MOL     -0.467475
    124 C39        -6.6300    1.7950   -0.1800 c3        1 MOL      0.075724
    125 C40        -6.5960    0.2490   -0.1920 c         1 MOL      0.844685
    126 O19        -7.1330   -0.3250    0.7430 o         1 MOL     -0.586234
    127 C41        -7.8570    2.4100   -0.9070 c3        1 MOL     -0.106886
    128 C42        -9.1100    2.0230   -0.2500 ca        1 MOL     -0.009276
    129 C43        -9.4820    2.5500    1.0390 ca        1 MOL     -0.208386
    130 C44        -9.9970    1.0760   -0.8720 ca        1 MOL     -0.208386
    131 C45       -10.7100    2.1730    1.5900 ca        1 MOL     -0.162277
    132 C46       -11.1770    0.7070   -0.2500 ca        1 MOL     -0.162277
    133 C47       -11.5650    1.2850    0.9940 ca        1 MOL      0.267034
    134 O20       -12.7280    0.9770    1.5710 oh        1 MOL     -0.497435
    135 H56        -5.2690    3.0020   -1.5170 hn        1 MOL      0.268732
    136 H57        -6.5780    2.0840    0.8680 h1        1 MOL      0.076905
    137 H58        -7.8830    2.1490   -1.9700 hc        1 MOL      0.069195
    138 H59        -7.8110    3.4980   -0.9130 hc        1 MOL      0.069195
    139 H60        -8.8530    3.3060    1.4820 ha        1 MOL      0.149383
    140 H61        -9.7580    0.6170   -1.8180 ha        1 MOL      0.149383
    141 H62       -11.1520    2.5330    2.5070 ha        1 MOL      0.108450
    142 H63       -11.9050    0.1010   -0.7600 ha        1 MOL      0.108450
    143 H64       -13.1940    0.3670    0.9970 ho        1 MOL      0.373510
    144 N13        -6.0860   -0.4640   -1.1770 n         1 MOL     -0.612462
    145 C48        -6.1110   -1.8620   -1.2200 c3        1 MOL      0.112305
    146 C49        -5.1700   -2.4960   -0.1590 c         1 MOL      0.221378
    147 O21        -4.9590   -3.6890   -0.0470 o         1 MOL     -0.503319
    148 C50        -5.8930   -2.4400   -2.5710 c3        1 MOL      0.231393
    149 C51        -7.0050   -2.0510   -3.5630 c3        1 MOL     -0.239143
    150 C52        -6.7940   -2.7870   -4.8900 c         1 MOL      0.695257
    151 O22        -7.1020   -4.0210   -4.9840 o         1 MOL     -0.739276
    152 O23        -6.2960   -2.2380   -5.8820 o         1 MOL     -0.739276
    153 H65        -5.4570   -0.0300   -1.8410 hn        1 MOL      0.214983
    154 H66        -7.1290   -2.1830   -1.0020 h1        1 MOL      0.067884
    155 H67        -5.8570   -3.5170   -2.4330 hc        1 MOL     -0.031054
    156 H68        -4.9280   -2.0390   -2.8930 hc        1 MOL     -0.031054
    157 H69        -6.9170   -1.0020   -3.8290 hc        1 MOL      0.006146
    158 H70        -7.9550   -2.3820   -3.1560 hc        1 MOL      0.006146
    159 N14        -4.4020   -1.7360    0.6490 n         1 MOL      0.069401
    160 C53        -3.6130   -2.2680    1.7600 c3        1 MOL     -0.094903
    161 C54        -4.1490   -1.7220    3.0960 c         1 MOL      0.397353
    162 O24        -3.9210   -2.2620    4.1640 o         1 MOL     -0.542499
    163 C55        -2.2800   -1.5790    1.6030 c3        1 MOL     -0.052507
    164 C56        -1.5010   -2.1140    0.4010 c3        1 MOL      0.147155
    165 C57        -0.1660   -1.3700    0.2810 c         1 MOL      0.569687
    166 O25         0.9570   -1.8470    0.3680 o         1 MOL     -0.669736
    167 O26        -0.2560   -0.1770   -0.0130 o         1 MOL     -0.669736
    168 H71        -4.5430   -0.7430    0.5820 hn        1 MOL      0.080072
    169 H72        -3.5580   -3.3590    1.8490 h1        1 MOL      0.112289
    170 H73        -1.6670   -1.6770    2.5030 hc        1 MOL      0.047624
    171 H74        -2.4560   -0.5060    1.5650 hc        1 MOL      0.047624
    172 H75        -2.0000   -1.8480   -0.5340 hc        1 MOL     -0.041718
    173 H76        -1.4950   -3.1990    0.2960 hc        1 MOL     -0.041718
    174 N15        -4.8280   -0.5240    3.0190 n         1 MOL      0.079803
    175 C58        -5.5020    0.1270    4.1090 c3        1 MOL     -0.290133
    176 H77        -6.5480   -0.1790    4.1230 h1        1 MOL      0.092421
    177 H78        -5.0290   -0.1540    5.0500 h1        1 MOL      0.092421
    178 H79        -5.4420    1.2080    3.9810 h1        1 MOL      0.092421
    179 H80        -5.0730   -0.2540    2.0780 hn        1 MOL     -0.123096
    180 Ca1         2.2300   -0.0510   -1.0560 Ca        1 MOL      1.756419
    181 O27         1.5470    2.1080   -2.6100 oh        1 MOL     -0.869393
    182 H81         1.3290    2.4540   -3.4670 ho        1 MOL      0.402844
    183 H82         2.3990    2.5040   -2.3930 ho        1 MOL      0.402844
    184 O28         0.4170   -0.6000   -3.1210 oh        1 MOL     -0.869393
    185 H83         0.7850   -1.4840   -3.1720 ho        1 MOL      0.402844
    186 H84        -0.3320   -0.6090   -3.7130 ho        1 MOL      0.402844
@<TRIPOS>BOND
     1    1    2 1   
     2    1    4 1   
     3    1    5 1   
     4    1    6 1   
     5    2    3 2   
     6    2    7 1   
     7    7    8 1   
     8    7   15 1   
     9    8    9 1   
    10    8   11 1   
    11    8   16 1   
    12    9   10 2   
    13    9   19 1   
    14   11   12 1   
    15   11   17 1   
    16   11   18 1   
    17   12   13 1   
    18   12   14 1   
    19   19   20 1   
    20   19   27 1   
    21   20   21 1   
    22   20   23 1   
    23   20   28 1   
    24   21   22 2   
    25   21   38 1   
    26   23   24 1   
    27   23   25 1   
    28   23   29 1   
    29   24   26 1   
    30   24   30 1   
    31   24   31 1   
    32   25   32 1   
    33   25   33 1   
    34   25   34 1   
    35   26   35 1   
    36   26   36 1   
    37   26   37 1   
    38   38   39 1   
    39   38   46 1   
    40   39   40 1   
    41   39   42 1   
    42   39   47 1   
    43   40   41 2   
    44   40   50 1   
    45   42   43 1   
    46   42   48 1   
    47   42   49 1   
    48   43   44 1   
    49   43   45 1   
    50   50   51 1   
    51   50   54 1   
    52   51   52 1   
    53   51   55 1   
    54   51   56 1   
    55   52   53 2   
    56   52   57 1   
    57   57   58 1   
    58   57   65 1   
    59   58   59 1   
    60   58   61 1   
    61   58   66 1   
    62   59   60 2   
    63   59   69 1   
    64   61   62 1   
    65   61   67 1   
    66   61   68 1   
    67   62   63 1   
    68   62   64 1   
    69   69   70 1   
    70   69   73 1   
    71   70   71 1   
    72   70   74 1   
    73   70   75 1   
    74   71   72 2   
    75   71   76 1   
    76   76   77 1   
    77   76   85 1   
    78   77   78 1   
    79   77   80 1   
    80   77   86 1   
    81   78   79 2   
    82   78   93 1   
    83   80   81 1   
    84   80   87 1   
    85   80   88 1   
    86   81   82 1   
    87   81   89 1   
    88   81   90 1   
    89   82   83 1   
    90   82   84 2   
    91   83   91 1   
    92   83   92 1   
    93   93   94 1   
    94   93  100 1   
    95   94   95 1   
    96   94   97 1   
    97   94  101 1   
    98   95   96 2   
    99   95  109 1   
   100   97   98 1   
   101   97   99 1   
   102   97  102 1   
   103   98  103 1   
   104   98  104 1   
   105   98  105 1   
   106   99  106 1   
   107   99  107 1   
   108   99  108 1   
   109  109  110 1   
   110  109  117 1   
   111  110  111 1   
   112  110  113 1   
   113  110  118 1   
   114  111  112 2   
   115  111  123 1   
   116  113  114 1   
   117  113  119 1   
   118  113  120 1   
   119  114  115 1   
   120  114  116 2   
   121  115  121 1   
   122  115  122 1   
   123  123  124 1   
   124  123  135 1   
   125  124  125 1   
   126  124  127 1   
   127  124  136 1   
   128  125  126 2   
   129  125  144 1   
   130  127  128 1   
   131  127  137 1   
   132  127  138 1   
   133  128  129 ar  
   134  128  130 ar  
   135  129  131 ar  
   136  129  139 1   
   137  130  132 ar  
   138  130  140 1   
   139  131  133 ar  
   140  131  141 1   
   141  132  133 ar  
   142  132  142 1   
   143  133  134 1   
   144  134  143 1   
   145  144  145 1   
   146  144  153 1   
   147  145  146 1   
   148  145  148 1   
   149  145  154 1   
   150  146  147 2   
   151  146  159 1   
   152  148  149 1   
   153  148  155 1   
   154  148  156 1   
   155  149  150 1   
   156  149  157 1   
   157  149  158 1   
   158  150  151 1   
   159  150  152 1   
   160  159  160 1   
   161  159  168 1   
   162  160  161 1   
   163  160  163 1   
   164  160  169 1   
   165  161  162 2   
   166  161  174 1   
   167  163  164 1   
   168  163  170 1   
   169  163  171 1   
   170  164  165 1   
   171  164  172 1   
   172  164  173 1   
   173  165  166 1   
   174  165  167 1   
   175  174  175 1   
   176  174  179 1   
   177  175  176 1   
   178  175  177 1   
   179  175  178 1   
   180  181  182 1   
   181  181  183 1   
   182  184  185 1   
   183  184  186 1   
@<TRIPOS>SUBSTRUCTURE
     1 MOL         1 TEMP              0 ****  ****    0 ROOT
