@<TRIPOS>MOLECULE
MOL
  186   183     1     0     0
SMALL
resp


@<TRIPOS>ATOM
      1 C1         -1.0950    1.3220    6.6410 c3        1 MOL     -0.337007
      2 C2         -1.2320    1.3660    5.0820 c         1 MOL      0.705594
      3 O1         -0.2610    1.7430    4.4050 o         1 MOL     -0.579254
      4 H1         -1.0490    2.3390    7.0300 hc        1 MOL      0.081347
      5 H2         -1.9570    0.8080    7.0680 hc        1 MOL      0.081347
      6 H3         -0.1840    0.7880    6.9120 hc        1 MOL      0.081347
      7 N1         -2.4060    1.1480    4.5440 n         1 MOL     -0.656741
      8 C3         -2.6900    1.2690    3.1210 c3        1 MOL      0.378342
      9 C4         -3.1990    2.6620    2.7880 c         1 MOL      0.518172
     10 O2         -4.0770    3.1790    3.4880 o         1 MOL     -0.597776
     11 C5         -3.7400    0.1780    2.7890 c3        1 MOL     -0.342720
     12 C6         -4.5950    0.2430    1.5710 c         1 MOL      0.853732
     13 O3         -4.0200    0.5980    0.5480 o         1 MOL     -0.703125
     14 O4         -5.8100    0.0460    1.5410 o         1 MOL     -0.703125
     15 H4         -3.1300    0.8280    5.1560 hn        1 MOL      0.339820
     16 H5         -1.8040    1.0430    2.5360 h1        1 MOL      0.029710
     17 H6         -4.4810    0.2940    3.5730 hc        1 MOL      0.013652
     18 H7         -3.2330   -0.7890    2.7380 hc        1 MOL      0.013652
     19 N2         -2.6380    3.3180    1.7610 n         1 MOL     -0.199365
     20 C7         -2.8120    4.7540    1.4550 c3        1 MOL      0.060030
     21 C8         -3.7200    5.0160    0.2370 c         1 MOL      0.281757
     22 O5         -4.1980    6.1550    0.0650 o         1 MOL     -0.530946
     23 C9         -1.4210    5.5000    1.4360 c3        1 MOL      0.058563
     24 C10        -0.6390    5.4560    0.1040 c3        1 MOL     -0.078551
     25 C11        -0.5480    4.8840    2.5180 c3        1 MOL     -0.198507
     26 C12        -1.0700    6.5920   -0.8630 c3        1 MOL     -0.222774
     27 H8         -1.7670    2.8990    1.4550 hn        1 MOL      0.148284
     28 H9         -3.2710    5.1330    2.3630 h1        1 MOL      0.063334
     29 H10        -1.6990    6.4650    1.8520 hc        1 MOL      0.027307
     30 H11        -0.8390    4.5220   -0.4190 hc        1 MOL      0.079729
     31 H12         0.4470    5.5140    0.2200 hc        1 MOL      0.079729
     32 H13         0.3640    5.4490    2.6920 hc        1 MOL      0.043617
     33 H14        -1.0690    4.6470    3.4470 hc        1 MOL      0.043617
     34 H15        -0.2230    3.9060    2.1780 hc        1 MOL      0.043617
     35 H16        -1.2080    7.5000   -0.2730 hc        1 MOL      0.051361
     36 H17        -0.3530    6.7870   -1.6560 hc        1 MOL      0.051361
     37 H18        -2.0590    6.3780   -1.2720 hc        1 MOL      0.051361
     38 N3         -3.9820    3.9530   -0.5770 n         1 MOL     -0.193054
     39 C13        -4.8370    4.0550   -1.7960 c3        1 MOL      0.053378
     40 C14        -5.9730    3.0120   -1.7250 c         1 MOL      0.442421
     41 O6         -6.6650    2.6920   -2.7470 o         1 MOL     -0.537449
     42 C15        -4.1340    3.9170   -3.2030 c3        1 MOL     -0.173612
     43 C16        -3.4400    2.5820   -3.3850 c         1 MOL      0.778049
     44 O7         -2.7970    2.4790   -4.4860 o         1 MOL     -0.719975
     45 O8         -3.5120    1.7310   -2.4950 o         1 MOL     -0.719975
     46 H19        -3.5630    3.0450   -0.4420 hn        1 MOL      0.164915
     47 H20        -5.3480    4.9990   -1.9370 h1        1 MOL      0.072687
     48 H21        -3.2920    4.6050   -3.1310 hc        1 MOL      0.043044
     49 H22        -4.8370    4.1560   -3.9910 hc        1 MOL      0.043044
     50 N4         -6.3000    2.4520   -0.5100 n         1 MOL     -0.308166
     51 C17        -7.6540    1.9170   -0.2410 c3        1 MOL     -0.255408
     52 C18        -8.0570    0.5970   -0.9660 c         1 MOL      0.539398
     53 O9         -9.1990    0.1370   -0.9800 o         1 MOL     -0.605358
     54 H23        -5.6510    2.5030    0.2630 hn        1 MOL      0.255727
     55 H24        -8.3100    2.7770   -0.3180 h1        1 MOL      0.125759
     56 H25        -7.7420    1.4530    0.7440 h1        1 MOL      0.125759
     57 N5         -7.0860   -0.1410   -1.4870 n         1 MOL     -0.314864
     58 C19        -7.1970   -1.5530   -2.0210 c3        1 MOL     -0.012495
     59 C20        -7.3000   -2.5740   -0.8830 c         1 MOL      0.473515
     60 O10        -7.7280   -3.7100   -1.1240 o         1 MOL     -0.590534
     61 C21        -6.0310   -1.7380   -3.0320 c3        1 MOL     -0.172050
     62 C22        -4.6710   -1.4300   -2.5140 c         1 MOL      0.678635
     63 O11        -3.8050   -1.0740   -3.3600 o         1 MOL     -0.727061
     64 O12        -4.3070   -1.6600   -1.3160 o         1 MOL     -0.727061
     65 H26        -6.2470    0.4010   -1.6560 hn        1 MOL      0.282259
     66 H27        -8.1070   -1.7180   -2.6060 h1        1 MOL      0.077772
     67 H28        -6.1190   -1.0400   -3.8730 hc        1 MOL      0.063283
     68 H29        -6.1290   -2.7190   -3.4860 hc        1 MOL      0.063283
     69 N6         -6.7990   -2.1830    0.2810 n         1 MOL     -0.112291
     70 C23        -6.9860   -2.9040    1.6060 c3        1 MOL     -0.011708
     71 C24        -5.8040   -3.8180    1.7900 c         1 MOL      0.560259
     72 O13        -5.8470   -4.7590    2.5360 o         1 MOL     -0.600236
     73 H30        -6.2840   -1.3220    0.3260 hn        1 MOL      0.178453
     74 H31        -7.9080   -3.4500    1.7670 h1        1 MOL      0.039151
     75 H32        -6.9900   -2.1550    2.4050 h1        1 MOL      0.039151
     76 N7         -4.6800   -3.4800    1.1640 n         1 MOL     -0.226320
     77 C25        -3.3650   -4.0420    1.3670 c3        1 MOL     -0.009752
     78 C26        -2.1650   -3.0470    1.1820 c         1 MOL      0.635840
     79 O14        -2.1790   -2.0050    0.5570 o         1 MOL     -0.698765
     80 C27        -3.1230   -5.2020    0.3760 c3        1 MOL     -0.379403
     81 C28        -3.2510   -4.7870   -1.1270 c3        1 MOL     -0.020361
     82 C29        -2.9690   -5.9810   -2.0160 c         1 MOL      0.594218
     83 N8         -3.1760   -5.7140   -3.2950 n         1 MOL     -0.731914
     84 O15        -2.7020   -7.0890   -1.5780 o         1 MOL     -0.560815
     85 H33        -4.8600   -2.7960    0.4400 hn        1 MOL      0.099935
     86 H34        -3.2220   -4.5030    2.3410 h1        1 MOL      0.056445
     87 H35        -3.9060   -5.9320    0.5750 hc        1 MOL      0.128686
     88 H36        -2.1910   -5.7320    0.5720 hc        1 MOL      0.128686
     89 H37        -2.5390   -4.0520   -1.5090 hc        1 MOL      0.059916
     90 H38        -4.1890   -4.2650   -1.3020 hc        1 MOL      0.059916
     91 H39        -3.0850   -4.7310   -3.4910 hn        1 MOL      0.334510
     92 H40        -2.9540   -6.4500   -3.9420 hn        1 MOL      0.334510
     93 N9         -1.0810   -3.4310    1.7430 n         1 MOL     -0.341415
     94 C30         0.1880   -2.6010    1.9190 c3        1 MOL      0.070854
     95 C31         1.3330   -3.1930    1.1060 c         1 MOL      0.308493
     96 O16         1.6690   -4.3650    1.3120 o         1 MOL     -0.546139
     97 C32         0.6010   -2.3820    3.3900 c3        1 MOL      0.169865
     98 C33         1.6570   -1.2710    3.5780 c3        1 MOL     -0.211354
     99 C34        -0.6330   -2.0620    4.2950 c3        1 MOL     -0.211354
    100 H41        -1.0480   -4.3780    2.0890 hn        1 MOL      0.256029
    101 H42         0.0760   -1.5760    1.5420 h1        1 MOL      0.169719
    102 H43         0.9880   -3.3290    3.7560 hc        1 MOL     -0.026298
    103 H44         2.0560   -1.3270    4.5890 hc        1 MOL      0.037531
    104 H45         2.5120   -1.3770    2.9070 hc        1 MOL      0.037531
    105 H46         1.2050   -0.2990    3.3950 hc        1 MOL      0.037531
    106 H47        -1.0140   -1.0390    4.2580 hc        1 MOL      0.037531
    107 H48        -1.4540   -2.7200    3.9980 hc        1 MOL      0.037531
    108 H49        -0.3360   -2.2600    5.3240 hc        1 MOL      0.037531
    109 N10         1.9470   -2.4020    0.1970 n         1 MOL     -0.143394
    110 C35         3.0630   -2.8270   -0.6760 c3        1 MOL      0.344237
    111 C36         4.3310   -2.1100   -0.1290 c         1 MOL      0.066379
    112 O17         4.1720   -1.4160    0.8830 o         1 MOL     -0.251350
    113 C37         2.6920   -2.5180   -2.1210 c3        1 MOL     -0.413111
    114 C38         3.0980   -1.1450   -2.5750 c         1 MOL      0.637919
    115 N11         2.2320   -0.1380   -2.4720 n         1 MOL     -0.656646
    116 O18         4.2440   -0.9090   -2.9230 o         1 MOL     -0.603701
    117 H50         1.6180   -1.4450    0.1440 hn        1 MOL      0.026487
    118 H51         3.1820   -3.9090   -0.6070 h1        1 MOL      0.028329
    119 H52         1.6270   -2.4850   -2.3400 hc        1 MOL      0.112552
    120 H53         3.2070   -3.2600   -2.7260 hc        1 MOL      0.112552
    121 H54         1.4310   -0.2580   -1.8660 hn        1 MOL      0.358022
    122 H55         2.4260    0.7850   -2.8450 hn        1 MOL      0.358022
    123 N12         5.5660   -2.2820   -0.6000 n         1 MOL     -0.201682
    124 C39         6.8030   -1.6580   -0.0070 c3        1 MOL     -0.050035
    125 C40         6.9150   -0.1420   -0.2650 c         1 MOL      0.829288
    126 O19         7.4370    0.5570    0.6060 o         1 MOL     -0.591249
    127 C41         8.0370   -2.2790   -0.6550 c3        1 MOL     -0.311153
    128 C42         9.4000   -1.8420   -0.2260 ca        1 MOL      0.091894
    129 C43         9.9020   -2.2930    1.0350 ca        1 MOL     -0.257370
    130 C44        10.2210   -1.0550   -1.0860 ca        1 MOL     -0.257370
    131 C45        11.2190   -2.0770    1.3400 ca        1 MOL     -0.081913
    132 C46        11.4970   -0.7000   -0.6760 ca        1 MOL     -0.081913
    133 C47        12.0680   -1.3210    0.4900 ca        1 MOL      0.183564
    134 O20        13.3650   -1.1270    0.7620 oh        1 MOL     -0.540391
    135 H56         5.7780   -2.9510   -1.3220 hn        1 MOL      0.224180
    136 H57         6.7280   -1.9060    1.0460 h1        1 MOL      0.113847
    137 H58         8.0140   -2.2820   -1.7440 hc        1 MOL      0.113348
    138 H59         7.9190   -3.3180   -0.3440 hc        1 MOL      0.113348
    139 H60         9.3260   -2.9770    1.6450 ha        1 MOL      0.167826
    140 H61         9.9110   -0.6380   -2.0270 ha        1 MOL      0.167826
    141 H62        11.6230   -2.6150    2.1880 ha        1 MOL      0.094177
    142 H63        12.1320   -0.0650   -1.2690 ha        1 MOL      0.094177
    143 H64        13.7730   -0.4680    0.1960 ho        1 MOL      0.412661
    144 N13         6.2750    0.4030   -1.2380 n         1 MOL     -0.525668
    145 C48         6.0770    1.8330   -1.3400 c3        1 MOL      0.001428
    146 C49         5.3430    2.3740   -0.1460 c         1 MOL      0.281050
    147 O21         5.6280    3.5330    0.1390 o         1 MOL     -0.519340
    148 C50         5.3430    2.2540   -2.6050 c3        1 MOL      0.431977
    149 C51         5.9800    1.7830   -3.8440 c3        1 MOL     -0.243437
    150 C52         7.3690    2.3210   -4.2260 c         1 MOL      0.624410
    151 O22         8.3580    1.8480   -3.6400 o         1 MOL     -0.711697
    152 O23         7.4530    3.2670   -5.0970 o         1 MOL     -0.711697
    153 H65         6.0820   -0.1720   -2.0440 hn        1 MOL      0.245962
    154 H66         7.0300    2.3760   -1.3310 h1        1 MOL      0.130653
    155 H67         5.1510    3.3260   -2.5340 hc        1 MOL     -0.112842
    156 H68         4.3540    1.7960   -2.6270 hc        1 MOL     -0.112842
    157 H69         5.2980    2.1000   -4.6370 hc        1 MOL      0.023035
    158 H70         5.9990    0.6920   -3.8550 hc        1 MOL      0.023035
    159 N14         4.4290    1.6350    0.4660 n         1 MOL     -0.117305
    160 C53         3.5320    1.9890    1.5820 c3        1 MOL     -0.002781
    161 C54         4.1280    1.5070    2.9100 c         1 MOL      0.427319
    162 O24         3.8750    2.1860    3.9210 o         1 MOL     -0.565047
    163 C55         2.1180    1.4110    1.3870 c3        1 MOL      0.143922
    164 C56         1.3660    2.0200    0.2510 c3        1 MOL      0.005878
    165 C57         0.0710    1.2340   -0.0830 c         1 MOL      0.600188
    166 O25        -1.0820    1.7090   -0.0040 o         1 MOL     -0.748175
    167 O26         0.1320    0.0340   -0.4770 o         1 MOL     -0.748175
    168 H71         4.2140    0.6930    0.1670 hn        1 MOL      0.176601
    169 H72         3.3740    3.0700    1.6760 h1        1 MOL      0.063147
    170 H73         1.5860    1.6900    2.2980 hc        1 MOL      0.025185
    171 H74         2.1930    0.3310    1.2520 hc        1 MOL      0.025185
    172 H75         1.9780    2.0390   -0.6500 hc        1 MOL     -0.028768
    173 H76         1.2620    3.0950    0.4010 hc        1 MOL     -0.028768
    174 N15         4.9740    0.4650    2.8980 n         1 MOL     -0.052526
    175 C58         5.7220    0.1130    4.0600 c3        1 MOL     -0.204491
    176 H77         5.8310    0.9890    4.7000 h1        1 MOL      0.071547
    177 H78         5.1990   -0.6720    4.6050 h1        1 MOL      0.071547
    178 H79         6.7090   -0.2440    3.7630 h1        1 MOL      0.071547
    179 H80         5.0970   -0.0910    2.0600 hn        1 MOL      0.028950
    180 Ca1        -2.3490   -0.1980   -1.2470 Ca        1 MOL      1.810771
    181 O27        -1.0630   -2.1260   -2.7210 oh        1 MOL     -0.796985
    182 H81        -0.9520   -1.4140   -3.3460 ho        1 MOL      0.379195
    183 H82        -1.1880   -2.9100   -3.2520 ho        1 MOL      0.379195
    184 O28        -0.5120    0.4980   -3.8610 oh        1 MOL     -0.796985
    185 H83         0.3070    0.5250   -4.3500 ho        1 MOL      0.379195
    186 H84        -1.0590    1.1610   -4.2830 ho        1 MOL      0.379195
@<TRIPOS>BOND
     1    1    2 1   
     2    1    4 1   
     3    1    5 1   
     4    1    6 1   
     5    2    3 2   
     6    2    7 1   
     7    7    8 1   
     8    7   15 1   
     9    8    9 1   
    10    8   11 1   
    11    8   16 1   
    12    9   10 2   
    13    9   19 1   
    14   11   12 1   
    15   11   17 1   
    16   11   18 1   
    17   12   13 1   
    18   12   14 1   
    19   19   20 1   
    20   19   27 1   
    21   20   21 1   
    22   20   23 1   
    23   20   28 1   
    24   21   22 2   
    25   21   38 1   
    26   23   24 1   
    27   23   25 1   
    28   23   29 1   
    29   24   26 1   
    30   24   30 1   
    31   24   31 1   
    32   25   32 1   
    33   25   33 1   
    34   25   34 1   
    35   26   35 1   
    36   26   36 1   
    37   26   37 1   
    38   38   39 1   
    39   38   46 1   
    40   39   40 1   
    41   39   42 1   
    42   39   47 1   
    43   40   41 2   
    44   40   50 1   
    45   42   43 1   
    46   42   48 1   
    47   42   49 1   
    48   43   44 1   
    49   43   45 1   
    50   50   51 1   
    51   50   54 1   
    52   51   52 1   
    53   51   55 1   
    54   51   56 1   
    55   52   53 2   
    56   52   57 1   
    57   57   58 1   
    58   57   65 1   
    59   58   59 1   
    60   58   61 1   
    61   58   66 1   
    62   59   60 2   
    63   59   69 1   
    64   61   62 1   
    65   61   67 1   
    66   61   68 1   
    67   62   63 1   
    68   62   64 1   
    69   69   70 1   
    70   69   73 1   
    71   70   71 1   
    72   70   74 1   
    73   70   75 1   
    74   71   72 2   
    75   71   76 1   
    76   76   77 1   
    77   76   85 1   
    78   77   78 1   
    79   77   80 1   
    80   77   86 1   
    81   78   79 2   
    82   78   93 1   
    83   80   81 1   
    84   80   87 1   
    85   80   88 1   
    86   81   82 1   
    87   81   89 1   
    88   81   90 1   
    89   82   83 1   
    90   82   84 2   
    91   83   91 1   
    92   83   92 1   
    93   93   94 1   
    94   93  100 1   
    95   94   95 1   
    96   94   97 1   
    97   94  101 1   
    98   95   96 2   
    99   95  109 1   
   100   97   98 1   
   101   97   99 1   
   102   97  102 1   
   103   98  103 1   
   104   98  104 1   
   105   98  105 1   
   106   99  106 1   
   107   99  107 1   
   108   99  108 1   
   109  109  110 1   
   110  109  117 1   
   111  110  111 1   
   112  110  113 1   
   113  110  118 1   
   114  111  112 2   
   115  111  123 1   
   116  113  114 1   
   117  113  119 1   
   118  113  120 1   
   119  114  115 1   
   120  114  116 2   
   121  115  121 1   
   122  115  122 1   
   123  123  124 1   
   124  123  135 1   
   125  124  125 1   
   126  124  127 1   
   127  124  136 1   
   128  125  126 2   
   129  125  144 1   
   130  127  128 1   
   131  127  137 1   
   132  127  138 1   
   133  128  129 ar  
   134  128  130 ar  
   135  129  131 ar  
   136  129  139 1   
   137  130  132 ar  
   138  130  140 1   
   139  131  133 ar  
   140  131  141 1   
   141  132  133 ar  
   142  132  142 1   
   143  133  134 1   
   144  134  143 1   
   145  144  145 1   
   146  144  153 1   
   147  145  146 1   
   148  145  148 1   
   149  145  154 1   
   150  146  147 2   
   151  146  159 1   
   152  148  149 1   
   153  148  155 1   
   154  148  156 1   
   155  149  150 1   
   156  149  157 1   
   157  149  158 1   
   158  150  151 1   
   159  150  152 1   
   160  159  160 1   
   161  159  168 1   
   162  160  161 1   
   163  160  163 1   
   164  160  169 1   
   165  161  162 2   
   166  161  174 1   
   167  163  164 1   
   168  163  170 1   
   169  163  171 1   
   170  164  165 1   
   171  164  172 1   
   172  164  173 1   
   173  165  166 1   
   174  165  167 1   
   175  174  175 1   
   176  174  179 1   
   177  175  176 1   
   178  175  177 1   
   179  175  178 1   
   180  181  182 1   
   181  181  183 1   
   182  184  185 1   
   183  184  186 1   
@<TRIPOS>SUBSTRUCTURE
     1 MOL         1 TEMP              0 ****  ****    0 ROOT
