@<TRIPOS>MOLECULE
MOL
  172   171     1     0     0
SMALL
resp


@<TRIPOS>ATOM
      1 C1          0.6380    3.8310    5.4650 c3        1 MOL     -0.457004
      2 C2         -0.0210    3.8600    4.0510 c         1 MOL      0.716513
      3 O1          0.7680    3.8950    3.1140 o         1 MOL     -0.536862
      4 H1          0.0010    3.2710    6.1500 hc        1 MOL      0.109497
      5 H2          1.6140    3.3490    5.4010 hc        1 MOL      0.109497
      6 H3          0.7590    4.8500    5.8310 hc        1 MOL      0.109497
      7 N1         -1.3190    3.9510    3.9340 n         1 MOL     -0.593819
      8 C3         -2.0210    3.5570    2.7210 c3        1 MOL      0.025955
      9 C4         -2.3740    4.6740    1.8450 c         1 MOL      0.570594
     10 O2         -3.0180    5.7040    2.2560 o         1 MOL     -0.591501
     11 C5         -3.3310    2.8440    3.1020 c3        1 MOL     -0.010331
     12 C6         -4.1660    2.2840    1.9060 c         1 MOL      0.630480
     13 O3         -3.6120    2.0500    0.8130 o         1 MOL     -0.657032
     14 O4         -5.4030    2.1740    2.1090 o         1 MOL     -0.657032
     15 H4         -1.8740    4.2390    4.7340 hn        1 MOL      0.327096
     16 H5         -1.3420    2.9420    2.1290 h1        1 MOL      0.054615
     17 H6         -4.0210    3.4430    3.6930 hc        1 MOL     -0.005899
     18 H7         -3.1870    2.0010    3.7810 hc        1 MOL     -0.005899
     19 N2         -1.9500    4.5580    0.5660 n         1 MOL     -0.392833
     20 C7         -2.1450    5.6400   -0.4120 c3        1 MOL      0.220653
     21 C8         -3.3680    5.3210   -1.3630 c         1 MOL      0.498330
     22 O5         -3.7980    6.3280   -1.9740 o         1 MOL     -0.596679
     23 C9         -0.8520    5.9030   -1.1640 c3        1 MOL     -0.334969
     24 H8         -1.4880    3.6890    0.3440 hn        1 MOL      0.238703
     25 H9         -2.4320    6.5720    0.0700 h1        1 MOL      0.044463
     26 H10        -0.0540    6.1980   -0.4820 hc        1 MOL      0.086236
     27 H11        -0.5670    5.0260   -1.7480 hc        1 MOL      0.086236
     28 H12        -0.9670    6.5950   -1.9980 hc        1 MOL      0.086236
     29 N3         -3.9880    4.1390   -1.3720 n         1 MOL     -0.373451
     30 C10        -4.9760    3.6430   -2.4350 c3        1 MOL      0.074655
     31 C11        -6.2970    2.9310   -1.9540 c         1 MOL      0.398401
     32 O6         -7.3160    3.0220   -2.6240 o         1 MOL     -0.537918
     33 C12        -4.1490    2.7840   -3.4710 c3        1 MOL     -0.042787
     34 C13        -3.5290    1.4440   -3.0360 c         1 MOL      0.647348
     35 O7         -3.8830    0.8440   -1.9740 o         1 MOL     -0.656735
     36 O8         -2.5550    1.1090   -3.6980 o         1 MOL     -0.656735
     37 H13        -3.5970    3.4500   -0.7370 hn        1 MOL      0.212031
     38 H14        -5.3210    4.5650   -2.9150 h1        1 MOL      0.058132
     39 H15        -3.3700    3.4220   -3.9020 hc        1 MOL      0.013909
     40 H16        -4.7440    2.6000   -4.3620 hc        1 MOL      0.013909
     41 N4         -6.1230    2.0340   -0.9100 n         1 MOL     -0.079988
     42 C14        -7.3050    1.2310   -0.3820 c3        1 MOL     -0.261393
     43 C15        -7.4820   -0.2420   -0.9720 c         1 MOL      0.543965
     44 O9         -8.5330   -0.8780   -0.8440 o         1 MOL     -0.612122
     45 H17        -5.2200    1.9010   -0.4940 hn        1 MOL      0.062867
     46 H18        -8.2300    1.7560   -0.6120 h1        1 MOL      0.130485
     47 H19        -7.2790    1.1360    0.6990 h1        1 MOL      0.130485
     48 N5         -6.3840   -0.8330   -1.4470 n         1 MOL     -0.285582
     49 C16        -6.3230   -2.2000   -1.9610 c3        1 MOL      0.120162
     50 C17        -6.1530   -3.2630   -0.8650 c         1 MOL      0.341872
     51 O10        -5.9230   -4.4400   -1.1910 o         1 MOL     -0.464609
     52 C18        -5.1670   -2.3100   -2.9560 c3        1 MOL     -0.292908
     53 C19        -3.8180   -2.3130   -2.2900 c         1 MOL      0.657116
     54 N6         -2.8530   -2.2650   -3.1280 n         1 MOL     -0.651174
     55 O11        -3.5860   -2.1050   -1.1290 o         1 MOL     -0.658130
     56 H20        -5.5630   -0.2640   -1.5900 hn        1 MOL      0.135942
     57 H21        -7.2360   -2.4440   -2.5050 h1        1 MOL      0.085433
     58 H22        -5.2130   -1.5120   -3.7030 hc        1 MOL      0.093193
     59 H23        -5.2880   -3.2950   -3.4040 hc        1 MOL      0.093193
     60 H24        -3.0200   -2.1690   -4.1240 hn        1 MOL      0.347220
     61 H25        -1.8950   -2.2000   -2.8290 hn        1 MOL      0.347220
     62 N7         -6.2450   -2.8830    0.4390 n         1 MOL     -0.177046
     63 C20        -6.2530   -3.8870    1.4440 c3        1 MOL     -0.177875
     64 C21        -4.9590   -4.6250    1.5370 c         1 MOL      0.490865
     65 O12        -4.9310   -5.5240    2.3940 o         1 MOL     -0.586816
     66 H26        -6.4920   -1.9560    0.7650 hn        1 MOL      0.241394
     67 H27        -7.0250   -4.5910    1.1620 h1        1 MOL      0.101549
     68 H28        -6.5230   -3.5430    2.4470 h1        1 MOL      0.101549
     69 N8         -3.8710   -4.1040    0.9910 n         1 MOL     -0.022898
     70 C22        -2.5190   -4.6420    1.2690 c3        1 MOL     -0.312305
     71 C23        -1.5190   -3.4660    1.3620 c         1 MOL      0.590089
     72 O13        -1.8050   -2.4560    0.7570 o         1 MOL     -0.437825
     73 C24        -2.0700   -5.5020    0.1000 c3        1 MOL      0.461268
     74 C25        -2.7550   -6.8440    0.0750 c3        1 MOL     -0.483071
     75 O14        -2.3330   -4.8930   -1.1430 oh        1 MOL     -0.515284
     76 H29        -3.9430   -3.3000    0.3920 hn        1 MOL     -0.025249
     77 H30        -2.3340   -5.1480    2.2110 h1        1 MOL      0.134623
     78 H31        -0.9920   -5.6420    0.0020 h1        1 MOL     -0.001099
     79 H32        -2.1200   -3.9710   -0.9960 ho        1 MOL      0.310600
     80 H33        -3.7960   -6.7390   -0.2250 hc        1 MOL      0.119125
     81 H34        -2.2400   -7.4790   -0.6460 hc        1 MOL      0.119125
     82 H35        -2.6810   -7.2500    1.0840 hc        1 MOL      0.119125
     83 N9         -0.3920   -3.7710    2.0760 n         1 MOL     -0.601526
     84 C26         0.7980   -2.9290    1.9910 c3        1 MOL     -0.041143
     85 C27         1.4000   -3.1970    0.5930 c         1 MOL      0.498314
     86 O15         1.5820   -4.3750    0.1810 o         1 MOL     -0.573091
     87 C28         1.8810   -3.1490    3.1220 c3        1 MOL      0.153737
     88 C29         1.3100   -3.0310    4.5460 c3        1 MOL      0.215872
     89 C30         3.1020   -2.1530    3.1010 c3        1 MOL     -0.165031
     90 C31         2.1150   -3.5740    5.6990 c3        1 MOL     -0.355409
     91 H36        -0.2740   -4.6330    2.5800 hn        1 MOL      0.332434
     92 H37         0.4340   -1.9170    2.1520 h1        1 MOL      0.097052
     93 H38         2.3010   -4.1390    3.0080 hc        1 MOL     -0.025735
     94 H39         0.3100   -3.4700    4.5980 hc        1 MOL     -0.045082
     95 H40         1.1460   -1.9540    4.6790 hc        1 MOL     -0.045082
     96 H41         2.7980   -1.1200    3.2780 hc        1 MOL      0.023195
     97 H42         3.8190   -2.4160    3.8780 hc        1 MOL      0.023195
     98 H43         3.5600   -2.1790    2.1160 hc        1 MOL      0.023195
     99 H44         2.2200   -4.6540    5.6400 hc        1 MOL      0.080261
    100 H45         3.0600   -3.0360    5.7410 hc        1 MOL      0.080261
    101 H46         1.7000   -3.2420    6.6550 hc        1 MOL      0.080261
    102 N10         1.7560   -2.0900   -0.0720 n         1 MOL     -0.087264
    103 C32         2.5440   -1.8610   -1.2630 c3        1 MOL      0.002387
    104 C33         3.9320   -1.4230   -0.8680 c         1 MOL      0.343404
    105 O16         4.1190   -0.6890    0.0820 o         1 MOL     -0.197363
    106 C34         1.7830   -0.8520   -2.1830 c3        1 MOL     -0.324353
    107 C35         0.3210   -1.3510   -2.3840 c         1 MOL      0.824679
    108 O17        -0.5420   -0.7440   -1.6920 o         1 MOL     -0.699842
    109 O18         0.0300   -2.2050   -3.2050 o         1 MOL     -0.699842
    110 H47         1.4410   -1.2860    0.4690 hn        1 MOL     -0.022778
    111 H48         2.6290   -2.8040   -1.8180 h1        1 MOL      0.057441
    112 H49         2.3320   -0.7250   -3.1190 hc        1 MOL      0.105370
    113 H50         1.7490    0.1080   -1.6720 hc        1 MOL      0.105370
    114 N11         4.9620   -1.8490   -1.5930 n         1 MOL     -0.485483
    115 C36         6.3120   -1.5090   -1.3030 c3        1 MOL      0.229676
    116 C37         6.5310    0.0050   -1.0500 c         1 MOL      0.309471
    117 O19         7.2730    0.4320   -0.1950 o         1 MOL     -0.439829
    118 C38         7.2740   -1.9360   -2.4680 c3        1 MOL     -0.324697
    119 C39         8.7040   -1.6050   -2.0980 ca        1 MOL      0.069923
    120 C40         9.2980   -2.2610   -0.9880 ca        1 MOL     -0.092211
    121 C41         9.5400   -0.7440   -2.9070 ca        1 MOL     -0.092211
    122 C42        10.6690   -2.1440   -0.7640 ca        1 MOL     -0.193035
    123 C43        10.8540   -0.5270   -2.5790 ca        1 MOL     -0.193035
    124 C44        11.4620   -1.2600   -1.4970 ca        1 MOL     -0.032568
    125 H51         4.7920   -2.5620   -2.2800 hn        1 MOL      0.314564
    126 H52         6.6440   -2.0570   -0.4250 h1        1 MOL      0.080534
    127 H53         7.1440   -1.3370   -3.3740 hc        1 MOL      0.111800
    128 H54         7.2060   -2.9900   -2.7280 hc        1 MOL      0.111800
    129 H55         8.7330   -2.9380   -0.3620 ha        1 MOL      0.105224
    130 H56         9.1830   -0.2960   -3.8270 ha        1 MOL      0.105224
    131 H57        11.0850   -2.5570    0.1430 ha        1 MOL      0.127745
    132 H58        11.4590    0.1910   -3.1210 ha        1 MOL      0.127745
    133 H59        12.5340   -1.2070   -1.4070 ha        1 MOL      0.081927
    134 N12         6.0060    1.0000   -1.8330 n         1 MOL     -0.059963
    135 C45         6.2150    2.4250   -1.5610 c3        1 MOL      0.028717
    136 C46         5.6400    2.7140   -0.1890 c         1 MOL      0.262093
    137 O20         6.0950    3.6010    0.5290 o         1 MOL     -0.521380
    138 C47         5.4470    3.1890   -2.6410 c3        1 MOL      0.004645
    139 C48         5.3580    2.1440   -3.7790 c3        1 MOL     -0.134043
    140 C49         5.2080    0.8760   -2.9990 c3        1 MOL      0.020633
    141 H60         7.2990    2.5050   -1.6400 h1        1 MOL      0.063443
    142 H61         4.4260    3.3720   -2.2950 hc        1 MOL      0.038095
    143 H62         5.9620    4.1220   -2.8730 hc        1 MOL      0.038095
    144 H63         4.4810    2.2390   -4.4120 hc        1 MOL      0.046577
    145 H64         6.2510    2.0820   -4.4020 hc        1 MOL      0.046577
    146 H65         4.1790    0.8400   -2.6520 h1        1 MOL      0.014373
    147 H66         5.4150   -0.0870   -3.4800 h1        1 MOL      0.014373
    148 N13         4.5630    2.0890    0.2080 n         1 MOL      0.023916
    149 C50         3.9470    2.2520    1.5460 c3        1 MOL     -0.283559
    150 C51         4.9540    1.6760    2.5200 c         1 MOL      0.616086
    151 O21         5.1200    2.2180    3.5310 o         1 MOL     -0.567996
    152 C52         2.5970    1.5160    1.5510 c3        1 MOL      0.016743
    153 C53         1.6550    2.2070    0.5420 c3        1 MOL     -0.198984
    154 C54         0.3630    1.4430    0.4030 c         1 MOL      0.721293
    155 O22        -0.5890    1.8600   -0.2820 o         1 MOL     -0.723987
    156 O23         0.2240    0.2690    0.9010 o         1 MOL     -0.723987
    157 H67         4.2500    1.2900   -0.3330 hn        1 MOL      0.077374
    158 H68         3.7710    3.3250    1.6670 h1        1 MOL      0.154606
    159 H69         2.1250    1.7050    2.5220 hc        1 MOL      0.048156
    160 H70         2.7610    0.4520    1.3880 hc        1 MOL      0.048156
    161 H71         2.0670    2.2930   -0.4590 hc        1 MOL      0.069857
    162 H72         1.3710    3.2330    0.8130 hc        1 MOL      0.069857
    163 N14         5.5940    0.5240    2.1910 n         1 MOL     -0.033733
    164 C55         6.4510   -0.0550    3.2090 c3        1 MOL     -0.284809
    165 H73         5.8380   -0.4350    4.0250 h1        1 MOL      0.089786
    166 H74         7.0280   -0.8720    2.7770 h1        1 MOL      0.089786
    167 H75         7.1300    0.7080    3.5910 h1        1 MOL      0.089786
    168 H76         5.5380    0.2530    1.2110 hn        1 MOL     -0.019338
    169 Ca1        -2.3900   -0.1070   -0.0760 Ca        1 MOL      1.762754
    170 O24        -1.9020    0.0040    2.5250 oh        1 MOL     -0.860622
    171 H77        -2.1150    0.3200    3.4040 ho        1 MOL      0.406289
    172 H78        -0.9650    0.1660    2.4280 ho        1 MOL      0.406289
@<TRIPOS>BOND
     1    1    2 1   
     2    1    4 1   
     3    1    5 1   
     4    1    6 1   
     5    2    3 2   
     6    2    7 1   
     7    7    8 1   
     8    7   15 1   
     9    8    9 1   
    10    8   11 1   
    11    8   16 1   
    12    9   10 2   
    13    9   19 1   
    14   11   12 1   
    15   11   17 1   
    16   11   18 1   
    17   12   13 1   
    18   12   14 1   
    19   19   20 1   
    20   19   24 1   
    21   20   21 1   
    22   20   23 1   
    23   20   25 1   
    24   21   22 2   
    25   21   29 1   
    26   23   26 1   
    27   23   27 1   
    28   23   28 1   
    29   29   30 1   
    30   29   37 1   
    31   30   31 1   
    32   30   33 1   
    33   30   38 1   
    34   31   32 2   
    35   31   41 1   
    36   33   34 1   
    37   33   39 1   
    38   33   40 1   
    39   34   35 1   
    40   34   36 1   
    41   41   42 1   
    42   41   45 1   
    43   42   43 1   
    44   42   46 1   
    45   42   47 1   
    46   43   44 2   
    47   43   48 1   
    48   48   49 1   
    49   48   56 1   
    50   49   50 1   
    51   49   52 1   
    52   49   57 1   
    53   50   51 2   
    54   50   62 1   
    55   52   53 1   
    56   52   58 1   
    57   52   59 1   
    58   53   54 1   
    59   53   55 2   
    60   54   60 1   
    61   54   61 1   
    62   62   63 1   
    63   62   66 1   
    64   63   64 1   
    65   63   67 1   
    66   63   68 1   
    67   64   65 2   
    68   64   69 1   
    69   69   70 1   
    70   69   76 1   
    71   70   71 1   
    72   70   73 1   
    73   70   77 1   
    74   71   72 2   
    75   71   83 1   
    76   73   74 1   
    77   73   75 1   
    78   73   78 1   
    79   74   80 1   
    80   74   81 1   
    81   74   82 1   
    82   75   79 1   
    83   83   84 1   
    84   83   91 1   
    85   84   85 1   
    86   84   87 1   
    87   84   92 1   
    88   85   86 2   
    89   85  102 1   
    90   87   88 1   
    91   87   89 1   
    92   87   93 1   
    93   88   90 1   
    94   88   94 1   
    95   88   95 1   
    96   89   96 1   
    97   89   97 1   
    98   89   98 1   
    99   90   99 1   
   100   90  100 1   
   101   90  101 1   
   102  102  103 1   
   103  102  110 1   
   104  103  104 1   
   105  103  106 1   
   106  103  111 1   
   107  104  105 2   
   108  104  114 1   
   109  106  107 1   
   110  106  112 1   
   111  106  113 1   
   112  107  108 1   
   113  107  109 1   
   114  114  115 1   
   115  114  125 1   
   116  115  116 1   
   117  115  118 1   
   118  115  126 1   
   119  116  117 2   
   120  116  134 1   
   121  118  119 1   
   122  118  127 1   
   123  118  128 1   
   124  119  120 ar  
   125  119  121 ar  
   126  120  122 ar  
   127  120  129 1   
   128  121  123 ar  
   129  121  130 1   
   130  122  124 ar  
   131  122  131 1   
   132  123  124 ar  
   133  123  132 1   
   134  124  133 1   
   135  134  135 1   
   136  134  140 1   
   137  135  136 1   
   138  135  138 1   
   139  135  141 1   
   140  136  137 2   
   141  136  148 1   
   142  138  139 1   
   143  138  142 1   
   144  138  143 1   
   145  139  140 1   
   146  139  144 1   
   147  139  145 1   
   148  140  146 1   
   149  140  147 1   
   150  148  149 1   
   151  148  157 1   
   152  149  150 1   
   153  149  152 1   
   154  149  158 1   
   155  150  151 2   
   156  150  163 1   
   157  152  153 1   
   158  152  159 1   
   159  152  160 1   
   160  153  154 1   
   161  153  161 1   
   162  153  162 1   
   163  154  155 1   
   164  154  156 1   
   165  163  164 1   
   166  163  168 1   
   167  164  165 1   
   168  164  166 1   
   169  164  167 1   
   170  170  171 1   
   171  170  172 1   
@<TRIPOS>SUBSTRUCTURE
     1 MOL         1 TEMP              0 ****  ****    0 ROOT
