@<TRIPOS>MOLECULE
MOL
  189   185     1     0     0
SMALL
resp


@<TRIPOS>ATOM
      1 C1          0.1780    2.0760    6.1980 c3        1 MOL     -0.228932
      2 C2         -0.2070    1.8000    4.7290 c         1 MOL      0.600659
      3 O1          0.5410    2.2470    3.8540 o         1 MOL     -0.579022
      4 H1          0.7520    3.0010    6.2550 hc        1 MOL      0.066382
      5 H2         -0.7260    2.1720    6.7990 hc        1 MOL      0.066382
      6 H3          0.7810    1.2510    6.5770 hc        1 MOL      0.066382
      7 N1         -1.3610    1.2090    4.3910 n         1 MOL     -0.539357
      8 C3         -1.8460    1.0290    3.0370 c3        1 MOL      0.121232
      9 C4         -2.2910    2.3820    2.4090 c         1 MOL      0.646937
     10 O2         -3.2820    2.9720    2.8360 o         1 MOL     -0.580215
     11 C5         -2.9910   -0.0320    3.0380 c3        1 MOL     -0.207682
     12 C6         -3.6950   -0.3370    1.7030 c         1 MOL      0.741472
     13 O3         -3.1400    0.1420    0.6410 o         1 MOL     -0.645377
     14 O4         -4.8270   -0.9220    1.6850 o         1 MOL     -0.645377
     15 H4         -1.8520    0.7360    5.1370 hn        1 MOL      0.313859
     16 H5         -0.9400    0.6680    2.5420 h1        1 MOL     -0.050791
     17 H6         -3.7050    0.3530    3.7760 hc        1 MOL      0.056615
     18 H7         -2.7200   -0.9790    3.5120 hc        1 MOL      0.056615
     19 N2         -1.5200    2.9450    1.4750 n         1 MOL     -0.273122
     20 C7         -1.5850    4.3870    1.1430 c3        1 MOL     -0.018025
     21 C8         -2.8320    4.6970    0.3150 c         1 MOL      0.472913
     22 O5         -3.3430    5.7820    0.3170 o         1 MOL     -0.549947
     23 C9         -0.3440    4.7360    0.3600 c3        1 MOL     -0.012519
     24 C10        -0.2230    6.2340   -0.1920 c3        1 MOL     -0.010193
     25 C11        -0.4030    7.3790    0.8560 c3        1 MOL      0.028222
     26 C12        -0.4780    8.6390    0.0340 c3        1 MOL      0.070347
     27 N3         -1.1190    9.7580    0.7950 n4        1 MOL     -0.425351
     28 H8         -0.7320    2.3870    1.1750 hn        1 MOL      0.228547
     29 H9         -1.6050    5.0730    1.9930 h1        1 MOL      0.058002
     30 H10        -0.2200    4.0980   -0.5280 hc        1 MOL      0.024516
     31 H11         0.4930    4.5320    1.0280 hc        1 MOL      0.024516
     32 H12        -0.9300    6.3370   -1.0210 hc        1 MOL      0.006700
     33 H13         0.7670    6.2940   -0.6480 hc        1 MOL      0.006700
     34 H14         0.4500    7.3930    1.5340 hc        1 MOL      0.024653
     35 H15        -1.3390    7.1680    1.3890 hc        1 MOL      0.024653
     36 H16        -1.0160    8.4780   -0.9030 hx        1 MOL      0.070965
     37 H17         0.5470    8.9460   -0.2000 hx        1 MOL      0.070965
     38 H18        -1.8040    9.4800    1.4780 hn        1 MOL      0.342914
     39 H19        -0.4090   10.3190    1.2470 hn        1 MOL      0.342914
     40 H20        -1.5940   10.3640    0.1320 hn        1 MOL      0.342914
     41 N4         -3.2400    3.6920   -0.4670 n         1 MOL     -0.225445
     42 C13        -4.3630    3.7370   -1.3990 c3        1 MOL      0.035456
     43 C14        -5.6660    3.0020   -0.9500 c         1 MOL      0.357067
     44 O6         -6.7520    3.2800   -1.3820 o         1 MOL     -0.518597
     45 C15        -4.0200    3.3350   -2.7970 c3        1 MOL     -0.239539
     46 C16        -2.7780    2.4820   -3.0210 c         1 MOL      0.739652
     47 O7         -2.4440    1.6310   -2.2310 o         1 MOL     -0.732355
     48 O8         -2.1810    2.5620   -4.1250 o         1 MOL     -0.732355
     49 H21        -2.7740    2.8170   -0.2750 hn        1 MOL      0.104929
     50 H22        -4.6610    4.7840   -1.4700 h1        1 MOL      0.082564
     51 H23        -3.8850    4.2190   -3.4120 hc        1 MOL      0.085277
     52 H24        -4.8630    2.8340   -3.2870 hc        1 MOL      0.085277
     53 N5         -5.5530    2.0310   -0.0510 n         1 MOL     -0.036381
     54 C17        -6.6720    1.2930    0.5300 c3        1 MOL     -0.273320
     55 C18        -7.1440    0.0990   -0.2830 c         1 MOL      0.640475
     56 O9         -8.3180   -0.2280   -0.2750 o         1 MOL     -0.602332
     57 H25        -4.6320    1.8360    0.3140 hn        1 MOL      0.094473
     58 H26        -7.4970    1.9750    0.7390 h1        1 MOL      0.119654
     59 H27        -6.3350    0.8260    1.4510 h1        1 MOL      0.119654
     60 N6         -6.2890   -0.5360   -1.0420 n         1 MOL     -0.340101
     61 C19        -6.6080   -1.6560   -1.9500 c3        1 MOL      0.187346
     62 C20        -6.7040   -2.9660   -1.0890 c         1 MOL      0.376770
     63 O10        -7.1780   -4.0400   -1.5170 o         1 MOL     -0.550292
     64 C21        -5.5590   -1.7930   -3.0380 c3        1 MOL     -0.296302
     65 C22        -4.1100   -1.5830   -2.6310 c         1 MOL      0.870231
     66 O11        -3.2210   -1.2020   -3.4040 o         1 MOL     -0.780723
     67 O12        -3.8340   -1.9050   -1.4500 o         1 MOL     -0.780723
     68 H28        -5.3140   -0.4360   -0.7820 hn        1 MOL      0.098238
     69 H29        -7.6250   -1.6550   -2.3400 h1        1 MOL      0.074039
     70 H30        -5.9430   -1.0550   -3.7410 hc        1 MOL      0.072547
     71 H31        -5.6270   -2.7570   -3.5450 hc        1 MOL      0.072547
     72 N7         -6.0700   -2.9280    0.1320 n         1 MOL     -0.197143
     73 C23        -6.2000   -4.0130    1.1160 c3        1 MOL     -0.026004
     74 C24        -4.8120   -4.6690    1.3220 c         1 MOL      0.468136
     75 O13        -4.8130   -5.7110    1.9350 o         1 MOL     -0.553579
     76 H32        -5.5700   -2.1050    0.4390 hn        1 MOL      0.211875
     77 H33        -6.9610   -4.7410    0.8270 h1        1 MOL      0.074868
     78 H34        -6.6010   -3.6500    2.0600 h1        1 MOL      0.074868
     79 N8         -3.6860   -4.0290    0.9870 n         1 MOL     -0.127099
     80 C25        -2.3990   -4.7830    0.9120 c3        1 MOL     -0.269296
     81 C26        -1.2690   -3.7120    1.0000 c         1 MOL      0.685377
     82 O14        -1.3580   -2.4820    0.7080 o         1 MOL     -0.615457
     83 C27        -2.2990   -5.4630   -0.4240 c3        1 MOL      0.430131
     84 C28        -2.9950   -6.8520   -0.5590 c3        1 MOL     -0.450153
     85 O15        -2.7500   -4.7240   -1.5870 oh        1 MOL     -0.638733
     86 H35        -3.7120   -3.0510    0.7640 hn        1 MOL      0.063169
     87 H36        -2.2910   -5.4830    1.7400 h1        1 MOL      0.132453
     88 H37        -1.2430   -5.6520   -0.6280 h1        1 MOL     -0.016176
     89 H38        -3.2380   -3.9660   -1.2600 ho        1 MOL      0.438622
     90 H39        -4.0600   -6.7990   -0.3200 hc        1 MOL      0.126773
     91 H40        -3.0210   -7.2390   -1.5800 hc        1 MOL      0.126773
     92 H41        -2.5090   -7.5960    0.0710 hc        1 MOL      0.126773
     93 N9         -0.0560   -4.2140    1.2940 n         1 MOL     -0.440217
     94 C29         1.1960   -3.4080    1.5220 c3        1 MOL      0.223951
     95 C30         2.2730   -3.6580    0.5420 c         1 MOL      0.237062
     96 O16         2.8250   -4.7770    0.4290 o         1 MOL     -0.517484
     97 C31         1.7150   -3.7050    2.9940 c3        1 MOL     -0.036568
     98 C32         0.8460   -3.2680    4.1800 c3        1 MOL      0.075574
     99 C33         3.1510   -3.1960    3.2540 c3        1 MOL     -0.165488
    100 C34         0.7020   -1.8170    4.3450 c3        1 MOL     -0.057270
    101 H42        -0.0600   -5.1880    1.5620 hn        1 MOL      0.266327
    102 H43         0.9740   -2.3440    1.5120 h1        1 MOL      0.023829
    103 H44         1.7080   -4.7900    3.1110 hc        1 MOL      0.025734
    104 H45         1.2750   -3.7290    5.0650 hc        1 MOL     -0.017437
    105 H46        -0.1360   -3.6620    3.9100 hc        1 MOL     -0.017437
    106 H47         3.4060   -3.4320    4.2890 hc        1 MOL      0.052874
    107 H48         3.8800   -3.8430    2.7810 hc        1 MOL      0.052874
    108 H49         3.2550   -2.1660    2.9440 hc        1 MOL      0.052874
    109 H50         0.2550   -1.4800    3.4100 hc        1 MOL      0.018701
    110 H51        -0.0290   -1.7040    5.1510 hc        1 MOL      0.018701
    111 H52         1.7120   -1.4150    4.4040 hc        1 MOL      0.018701
    112 N10         2.6860   -2.6830   -0.2510 n         1 MOL      0.018612
    113 C35         3.7810   -2.6510   -1.2480 c3        1 MOL      0.131758
    114 C36         5.1570   -2.2760   -0.8000 c         1 MOL      0.271096
    115 O17         5.2700   -1.8360    0.3120 o         1 MOL     -0.199813
    116 C37         3.5030   -1.9130   -2.5360 c3        1 MOL      0.063736
    117 C38         2.2340   -2.3560   -3.3260 c3        1 MOL     -0.236111
    118 O18         3.1380   -0.5980   -2.1680 oh        1 MOL     -0.528441
    119 H53         2.2530   -1.7890   -0.0830 hn        1 MOL     -0.012179
    120 H54         3.9510   -3.6890   -1.5450 h1        1 MOL      0.057096
    121 H55         4.3990   -1.9240   -3.1530 h1        1 MOL      0.077442
    122 H56         2.4700   -0.6590   -1.4860 ho        1 MOL      0.391694
    123 H57         1.2810   -2.2890   -2.7960 hc        1 MOL      0.060042
    124 H58         2.1790   -1.7580   -4.2360 hc        1 MOL      0.060042
    125 H59         2.2960   -3.4060   -3.6290 hc        1 MOL      0.060042
    126 N11         6.3070   -2.3980   -1.5060 n         1 MOL     -0.413466
    127 C39         7.6240   -1.8060   -1.0810 c3        1 MOL     -0.026717
    128 C40         7.5790   -0.3720   -0.5720 c         1 MOL      0.444142
    129 O19         7.9840   -0.1350    0.5890 o         1 MOL     -0.501091
    130 C41         8.4690   -1.7520   -2.3450 c3        1 MOL      0.189439
    131 C42         9.0730   -3.1190   -2.6270 c3        1 MOL     -0.245199
    132 O20         7.9000   -1.1010   -3.4570 oh        1 MOL     -0.668077
    133 H60         6.2050   -2.6770   -2.4700 hn        1 MOL      0.276799
    134 H61         8.1540   -2.3640   -0.3220 h1        1 MOL      0.144152
    135 H62         9.2790   -1.1570   -1.9310 h1        1 MOL      0.059625
    136 H63         8.1430   -1.5560   -4.2640 ho        1 MOL      0.453488
    137 H64         9.8230   -3.1480   -3.4090 hc        1 MOL      0.076815
    138 H65         9.5710   -3.5190   -1.7380 hc        1 MOL      0.076815
    139 H66         8.3440   -3.8470   -3.0030 hc        1 MOL      0.076815
    140 N12         6.9000    0.5720   -1.2960 n         1 MOL     -0.263788
    141 C43         6.6520    2.0030   -1.0130 c3        1 MOL     -0.127368
    142 C44         5.8450    2.2110    0.2490 c         1 MOL      0.481516
    143 O21         5.8760    3.2590    0.8730 o         1 MOL     -0.540041
    144 C45         5.9840    2.7830   -2.1960 c3        1 MOL     -0.238420
    145 C46         4.5070    2.4550   -2.4830 c3        1 MOL      0.346023
    146 C47         3.7640    3.3090   -3.5530 c3        1 MOL     -0.119510
    147 C48         2.2230    3.0690   -3.4520 c3        1 MOL     -0.185750
    148 N13         1.9690    1.6380   -3.5410 n4        1 MOL     -0.211493
    149 H67         6.5660    0.3070   -2.2080 hn        1 MOL      0.315338
    150 H68         7.6470    2.3500   -0.7260 h1        1 MOL      0.156274
    151 H69         6.4630    2.6170   -3.1700 hc        1 MOL      0.068226
    152 H70         5.9540    3.8490   -1.9610 hc        1 MOL      0.068226
    153 H71         3.9030    2.4470   -1.5810 hc        1 MOL     -0.107907
    154 H72         4.6430    1.4140   -2.7640 hc        1 MOL     -0.107907
    155 H73         4.2090    3.2710   -4.5460 hc        1 MOL      0.058213
    156 H74         3.9500    4.3170   -3.2050 hc        1 MOL      0.058213
    157 H75         1.7900    3.5910   -4.3030 hx        1 MOL      0.129300
    158 H76         1.7960    3.4600   -2.5250 hx        1 MOL      0.129300
    159 H77         2.5270    1.0400   -2.9460 hn        1 MOL      0.293095
    160 H78         0.9740    1.5240   -3.4050 hn        1 MOL      0.293095
    161 H79         1.9840    1.3100   -4.4910 hn        1 MOL      0.293095
    162 N14         5.1620    1.1580    0.7320 n         1 MOL     -0.031988
    163 C49         4.3460    1.1820    1.9610 c3        1 MOL      0.017787
    164 C50         5.1320    0.5100    3.0800 c         1 MOL      0.417687
    165 O22         5.2760    0.9990    4.1810 o         1 MOL     -0.550839
    166 C51         2.9780    0.6740    1.6920 c3        1 MOL      0.198284
    167 C52         2.1060    1.5580    0.8320 c3        1 MOL     -0.235404
    168 C53         1.0080    0.7110    0.2150 c         1 MOL      0.874412
    169 O23         1.2250   -0.3250   -0.4410 o         1 MOL     -0.747380
    170 O24        -0.1480    1.0420    0.1840 o         1 MOL     -0.747380
    171 H80         5.2730    0.2820    0.2440 hn        1 MOL     -0.089815
    172 H81         4.1890    2.2100    2.2920 h1        1 MOL      0.058676
    173 H82         2.4580    0.6080    2.6540 hc        1 MOL     -0.003968
    174 H83         3.0150   -0.2980    1.2130 hc        1 MOL     -0.003968
    175 H84         2.6320    1.8320   -0.0810 hc        1 MOL      0.049311
    176 H85         1.7190    2.3690    1.4440 hc        1 MOL      0.049311
    177 N15         5.8150   -0.5750    2.7290 n         1 MOL      0.014593
    178 C54         6.8130   -1.3160    3.5030 c3        1 MOL     -0.348811
    179 H86         7.3920   -0.6200    4.1110 h1        1 MOL      0.126038
    180 H87         6.3110   -2.0340    4.1520 h1        1 MOL      0.126038
    181 H88         7.4810   -1.8450    2.8230 h1        1 MOL      0.126038
    182 H89         5.5480   -0.9410    1.8290 hn        1 MOL     -0.019796
    183 Ca1        -1.5830   -0.5340   -1.2430 Ca        1 MOL      1.770994
    184 O25        -1.1720   -2.8420   -2.3910 oh        1 MOL     -0.905228
    185 H90        -1.4780   -3.7520   -2.3210 ho        1 MOL      0.428519
    186 H91        -1.2650   -2.6270   -3.3270 ho        1 MOL      0.428519
    187 O26        -0.3480    0.2290   -3.5300 oh        1 MOL     -0.905228
    188 H92        -1.0410    0.8910   -3.6030 ho        1 MOL      0.428519
    189 H93        -0.4990   -0.3550   -4.2760 ho        1 MOL      0.428519
@<TRIPOS>BOND
     1    1    2 1   
     2    1    4 1   
     3    1    5 1   
     4    1    6 1   
     5    2    3 2   
     6    2    7 1   
     7    7    8 1   
     8    7   15 1   
     9    8    9 1   
    10    8   11 1   
    11    8   16 1   
    12    9   10 2   
    13    9   19 1   
    14   11   12 1   
    15   11   17 1   
    16   11   18 1   
    17   12   13 1   
    18   12   14 1   
    19   19   20 1   
    20   19   28 1   
    21   20   21 1   
    22   20   23 1   
    23   20   29 1   
    24   21   22 2   
    25   21   41 1   
    26   23   24 1   
    27   23   30 1   
    28   23   31 1   
    29   24   25 1   
    30   24   32 1   
    31   24   33 1   
    32   25   26 1   
    33   25   34 1   
    34   25   35 1   
    35   26   27 1   
    36   26   36 1   
    37   26   37 1   
    38   27   38 1   
    39   27   39 1   
    40   27   40 1   
    41   41   42 1   
    42   41   49 1   
    43   42   43 1   
    44   42   45 1   
    45   42   50 1   
    46   43   44 2   
    47   43   53 1   
    48   45   46 1   
    49   45   51 1   
    50   45   52 1   
    51   46   47 1   
    52   46   48 1   
    53   53   54 1   
    54   53   57 1   
    55   54   55 1   
    56   54   58 1   
    57   54   59 1   
    58   55   56 2   
    59   55   60 1   
    60   60   61 1   
    61   60   68 1   
    62   61   62 1   
    63   61   64 1   
    64   61   69 1   
    65   62   63 2   
    66   62   72 1   
    67   64   65 1   
    68   64   70 1   
    69   64   71 1   
    70   65   66 1   
    71   65   67 1   
    72   72   73 1   
    73   72   76 1   
    74   73   74 1   
    75   73   77 1   
    76   73   78 1   
    77   74   75 2   
    78   74   79 1   
    79   79   80 1   
    80   79   86 1   
    81   80   81 1   
    82   80   83 1   
    83   80   87 1   
    84   81   82 2   
    85   81   93 1   
    86   83   84 1   
    87   83   85 1   
    88   83   88 1   
    89   84   90 1   
    90   84   91 1   
    91   84   92 1   
    92   85   89 1   
    93   93   94 1   
    94   93  101 1   
    95   94   95 1   
    96   94   97 1   
    97   94  102 1   
    98   95   96 2   
    99   95  112 1   
   100   97   98 1   
   101   97   99 1   
   102   97  103 1   
   103   98  100 1   
   104   98  104 1   
   105   98  105 1   
   106   99  106 1   
   107   99  107 1   
   108   99  108 1   
   109  100  109 1   
   110  100  110 1   
   111  100  111 1   
   112  112  113 1   
   113  112  119 1   
   114  113  114 1   
   115  113  116 1   
   116  113  120 1   
   117  114  115 2   
   118  114  126 1   
   119  116  117 1   
   120  116  118 1   
   121  116  121 1   
   122  117  123 1   
   123  117  124 1   
   124  117  125 1   
   125  118  122 1   
   126  126  127 1   
   127  126  133 1   
   128  127  128 1   
   129  127  130 1   
   130  127  134 1   
   131  128  129 2   
   132  128  140 1   
   133  130  131 1   
   134  130  132 1   
   135  130  135 1   
   136  131  137 1   
   137  131  138 1   
   138  131  139 1   
   139  132  136 1   
   140  140  141 1   
   141  140  149 1   
   142  141  142 1   
   143  141  144 1   
   144  141  150 1   
   145  142  143 2   
   146  142  162 1   
   147  144  145 1   
   148  144  151 1   
   149  144  152 1   
   150  145  146 1   
   151  145  153 1   
   152  145  154 1   
   153  146  147 1   
   154  146  155 1   
   155  146  156 1   
   156  147  148 1   
   157  147  157 1   
   158  147  158 1   
   159  148  159 1   
   160  148  160 1   
   161  148  161 1   
   162  162  163 1   
   163  162  171 1   
   164  163  164 1   
   165  163  166 1   
   166  163  172 1   
   167  164  165 2   
   168  164  177 1   
   169  166  167 1   
   170  166  173 1   
   171  166  174 1   
   172  167  168 1   
   173  167  175 1   
   174  167  176 1   
   175  168  169 1   
   176  168  170 1   
   177  177  178 1   
   178  177  182 1   
   179  178  179 1   
   180  178  180 1   
   181  178  181 1   
   182  184  185 1   
   183  184  186 1   
   184  187  188 1   
   185  187  189 1   
@<TRIPOS>SUBSTRUCTURE
     1 MOL         1 TEMP              0 ****  ****    0 ROOT
