@<TRIPOS>MOLECULE
MOL
  189   185     1     0     0
SMALL
resp


@<TRIPOS>ATOM
      1 C1          0.5390   -4.0280    6.0410 c3        1 MOL     -0.288461
      2 C2          0.7540   -3.5760    4.6100 c         1 MOL      0.730189
      3 O1          0.5810   -2.4100    4.2000 o         1 MOL     -0.632241
      4 H1          0.8030   -3.2170    6.7210 hc        1 MOL      0.077343
      5 H2         -0.5080   -4.2960    6.1850 hc        1 MOL      0.077343
      6 H3          1.1670   -4.8940    6.2470 hc        1 MOL      0.077343
      7 N1          1.4900   -4.3980    3.8390 n         1 MOL     -0.683583
      8 C3          2.0750   -4.0930    2.5450 c3        1 MOL      0.448703
      9 C4          1.7720   -5.1790    1.5230 c         1 MOL      0.300121
     10 O2          2.0160   -6.3620    1.6180 o         1 MOL     -0.526628
     11 C5          3.6200   -3.8090    2.7140 c3        1 MOL     -0.180776
     12 C6          4.3500   -3.0090    1.7060 c         1 MOL      0.906180
     13 O3          5.5680   -2.7740    1.9650 o         1 MOL     -0.734981
     14 O4          3.7060   -2.5820    0.6980 o         1 MOL     -0.734981
     15 H4          1.6660   -5.3470    4.1480 hn        1 MOL      0.306208
     16 H5          1.6120   -3.1580    2.2610 h1        1 MOL      0.125566
     17 H6          4.0590   -4.8110    2.7830 hc        1 MOL     -0.003194
     18 H7          3.7920   -3.3080    3.6670 hc        1 MOL     -0.003194
     19 N2          1.1200   -4.7060    0.3890 n         1 MOL     -0.128021
     20 C7          0.7430   -5.4920   -0.7400 c3        1 MOL      0.102506
     21 C8          1.8450   -5.5090   -1.8280 c         1 MOL      0.429691
     22 O5          1.9530   -6.4480   -2.6460 o         1 MOL     -0.594524
     23 C9         -0.6240   -4.9400   -1.2620 c3        1 MOL      0.224011
     24 C10        -1.7150   -5.1270   -0.1230 c3        1 MOL     -0.020689
     25 C11        -1.1350   -5.4840   -2.5940 c3        1 MOL     -0.307776
     26 C12        -3.1010   -4.6980   -0.5490 c3        1 MOL     -0.361478
     27 H8          1.0800   -3.7010    0.3610 hn        1 MOL     -0.207151
     28 H9          0.5760   -6.5510   -0.5510 h1        1 MOL      0.012703
     29 H10        -0.4360   -3.8770   -1.4260 hc        1 MOL      0.043562
     30 H11        -1.4340   -4.4200    0.6500 hc        1 MOL      0.008320
     31 H12        -1.6130   -6.1360    0.2850 hc        1 MOL      0.008320
     32 H13        -1.4580   -6.5200   -2.4590 hc        1 MOL      0.059805
     33 H14        -2.0450   -4.9630   -2.8930 hc        1 MOL      0.059805
     34 H15        -0.2850   -5.3960   -3.2710 hc        1 MOL      0.059805
     35 H16        -3.5170   -5.4710   -1.1910 hc        1 MOL      0.104091
     36 H17        -3.6050   -4.6730    0.4170 hc        1 MOL      0.104091
     37 H18        -3.0420   -3.6970   -0.9790 hc        1 MOL      0.104091
     38 N3          2.5580   -4.4040   -1.9870 n         1 MOL     -0.262054
     39 C13         3.4180   -4.1630   -3.1610 c3        1 MOL      0.047293
     40 C14         4.8550   -3.7420   -2.8310 c         1 MOL      0.346644
     41 O6          5.5790   -3.6240   -3.8620 o         1 MOL     -0.557856
     42 C15         2.7860   -3.0570   -3.9420 c3        1 MOL     -0.205875
     43 C16         2.5240   -1.7020   -3.3180 c         1 MOL      0.771428
     44 O7          3.0870   -1.4610   -2.2130 o         1 MOL     -0.712488
     45 O8          1.6250   -0.9980   -3.8140 o         1 MOL     -0.712488
     46 H19         2.5670   -3.7410   -1.2200 hn        1 MOL      0.252664
     47 H20         3.4140   -5.0070   -3.8510 h1        1 MOL      0.108890
     48 H21         1.7580   -3.3730   -4.1240 hc        1 MOL      0.048201
     49 H22         3.3490   -2.9530   -4.8720 hc        1 MOL      0.048201
     50 N4          5.2720   -3.4710   -1.6070 n         1 MOL     -0.182152
     51 C17         6.6970   -3.1310   -1.2270 c3        1 MOL     -0.337622
     52 C18         7.1600   -1.6320   -1.2160 c         1 MOL      0.559054
     53 O9          8.2170   -1.3300   -0.6760 o         1 MOL     -0.595291
     54 H23         4.6120   -3.4660   -0.8330 hn        1 MOL      0.123894
     55 H24         7.3590   -3.5860   -1.9520 h1        1 MOL      0.157107
     56 H25         6.9120   -3.6000   -0.2620 h1        1 MOL      0.157107
     57 N5          6.4430   -0.7160   -1.8820 n         1 MOL     -0.312675
     58 C19         6.9890    0.6390   -2.3200 c3        1 MOL      0.022437
     59 C20         7.5580    1.5070   -1.2600 c         1 MOL      0.539066
     60 O10         8.3410    2.3690   -1.5510 o         1 MOL     -0.600434
     61 C21         5.9180    1.4460   -3.0540 c3        1 MOL     -0.248118
     62 C22         4.5400    1.6250   -2.3630 c         1 MOL      0.741839
     63 O11         4.4390    1.2230   -1.1740 o         1 MOL     -0.692985
     64 O12         3.6500    2.3080   -3.0460 o         1 MOL     -0.692985
     65 H26         5.5020   -0.9930   -2.1230 hn        1 MOL      0.271968
     66 H27         7.8280    0.3940   -2.9580 h1        1 MOL      0.069807
     67 H28         5.6530    0.8480   -3.9280 hc        1 MOL      0.068853
     68 H29         6.2910    2.4150   -3.3720 hc        1 MOL      0.068853
     69 N6          7.0390    1.5030   -0.0370 n         1 MOL     -0.258185
     70 C23         7.3580    2.4860    1.0930 c3        1 MOL     -0.108582
     71 C24         6.2530    3.5150    1.3260 c         1 MOL      0.496514
     72 O13         6.4920    4.4470    2.1500 o         1 MOL     -0.624123
     73 H30         6.3230    0.8010    0.0750 hn        1 MOL      0.224719
     74 H31         8.3240    2.9640    0.9490 h1        1 MOL      0.085034
     75 H32         7.3980    1.9810    2.0650 h1        1 MOL      0.085034
     76 N7          5.0640    3.3610    0.7220 n         1 MOL     -0.177381
     77 C25         3.8710    4.1990    0.9950 c3        1 MOL      0.018342
     78 C26         2.6180    3.3440    1.1810 c         1 MOL      0.175339
     79 O14         2.5750    2.1190    0.9410 o         1 MOL     -0.335419
     80 C27         3.7520    5.1300   -0.1470 c3        1 MOL      0.054377
     81 C28         4.8060    6.2290   -0.1950 c3        1 MOL     -0.410383
     82 C29         4.3530    7.5020   -0.9670 c         1 MOL      0.723757
     83 N8          5.1980    8.4160   -1.4470 n         1 MOL     -0.794204
     84 O15         3.1660    7.7850   -1.0760 o         1 MOL     -0.544470
     85 H33         5.0630    2.7140   -0.0490 hn        1 MOL      0.208733
     86 H34         4.0390    4.7940    1.8920 h1        1 MOL      0.060546
     87 H35         2.8020    5.6510   -0.0450 hc        1 MOL      0.044795
     88 H36         3.7920    4.6480   -1.1220 hc        1 MOL      0.044795
     89 H37         5.6960    5.7760   -0.6400 hc        1 MOL      0.114011
     90 H38         4.9930    6.6520    0.7880 hc        1 MOL      0.114011
     91 H39         6.1510    8.2620   -1.1480 hn        1 MOL      0.338375
     92 H40         4.9680    9.3490   -1.7450 hn        1 MOL      0.338375
     93 N9          1.5950    3.9770    1.7090 n         1 MOL     -0.177878
     94 C30         0.2760    3.4630    2.0480 c3        1 MOL      0.008733
     95 C31        -0.8430    3.6120    0.9620 c         1 MOL      0.498424
     96 O16        -1.2780    4.7920    0.8460 o         1 MOL     -0.588343
     97 C32        -0.2650    3.9120    3.4000 c3        1 MOL      0.248603
     98 C33        -1.6430    3.2960    3.8150 c3        1 MOL     -0.393843
     99 C34         0.5950    3.4870    4.6450 c3        1 MOL     -0.393843
    100 H41         1.6630    4.9690    1.9090 hn        1 MOL      0.222405
    101 H42         0.4120    2.3850    2.0850 h1        1 MOL      0.038175
    102 H43        -0.4420    4.9900    3.3620 hc        1 MOL     -0.022940
    103 H44        -1.8010    3.7920    4.7680 hc        1 MOL      0.090813
    104 H45        -2.3880    3.5300    3.0410 hc        1 MOL      0.090813
    105 H46        -1.5880    2.2370    4.0430 hc        1 MOL      0.090813
    106 H47         1.5620    3.9860    4.5760 hc        1 MOL      0.090813
    107 H48         0.1210    3.9280    5.5280 hc        1 MOL      0.090813
    108 H49         0.8600    2.4340    4.6940 hc        1 MOL      0.090813
    109 N10        -1.2340    2.5910    0.2540 n         1 MOL     -0.339897
    110 C35        -2.4860    2.6200   -0.5200 c3        1 MOL      0.192747
    111 C36        -3.8150    2.3860    0.2190 c         1 MOL      0.274108
    112 O17        -3.7740    2.0710    1.4040 o         1 MOL     -0.273780
    113 C37        -2.2520    1.5380   -1.6190 c3        1 MOL     -0.426596
    114 C38        -3.1430    1.5530   -2.8990 c         1 MOL      0.652954
    115 N11        -3.2550    2.6750   -3.5290 n         1 MOL     -0.738710
    116 O18        -3.8380    0.5950   -3.2230 o         1 MOL     -0.527908
    117 H50        -0.7810    1.7000    0.3980 hn        1 MOL      0.204090
    118 H51        -2.5990    3.6410   -0.8850 h1        1 MOL      0.048698
    119 H52        -2.4430    0.5420   -1.2200 hc        1 MOL      0.170040
    120 H53        -1.2460    1.5440   -2.0160 hc        1 MOL      0.170040
    121 H54        -2.6700    3.4880   -3.4040 hn        1 MOL      0.340713
    122 H55        -3.7740    2.6840   -4.3960 hn        1 MOL      0.340713
    123 N12        -4.9430    2.6550   -0.4600 n         1 MOL     -0.326194
    124 C39        -6.2610    2.7610    0.2900 c3        1 MOL      0.135643
    125 C40        -6.8540    1.4470    0.8720 c         1 MOL      0.396677
    126 O19        -7.2740    1.4420    2.0360 o         1 MOL     -0.535618
    127 C41        -7.3030    3.4490   -0.5910 c3        1 MOL     -0.090981
    128 C42        -7.5800    2.8040   -1.9060 ca        1 MOL     -0.007612
    129 C43        -6.9100    3.2190   -3.0690 ca        1 MOL     -0.191914
    130 C44        -8.5810    1.7830   -2.0010 ca        1 MOL     -0.191914
    131 C45        -7.1890    2.5960   -4.2270 ca        1 MOL     -0.226782
    132 C46        -8.9390    1.1800   -3.2030 ca        1 MOL     -0.226782
    133 C47        -8.2080    1.5950   -4.3530 ca        1 MOL      0.343255
    134 O20        -8.5550    0.9540   -5.4610 oh        1 MOL     -0.525670
    135 H56        -4.9520    2.8410   -1.4600 hn        1 MOL      0.179418
    136 H57        -6.2350    3.4960    1.1030 h1        1 MOL      0.034141
    137 H58        -6.9940    4.4590   -0.8570 hc        1 MOL      0.040811
    138 H59        -8.1990    3.5320    0.0190 hc        1 MOL      0.040811
    139 H60        -6.2760    4.0820   -2.9410 ha        1 MOL      0.143490
    140 H61        -9.1340    1.6360   -1.0850 ha        1 MOL      0.143490
    141 H62        -6.6680    2.9000   -5.1220 ha        1 MOL      0.122030
    142 H63        -9.7460    0.4550   -3.2320 ha        1 MOL      0.122030
    143 H64        -9.3560    0.4390   -5.3180 ho        1 MOL      0.403510
    144 N13        -6.5940    0.4060    0.1270 n         1 MOL     -0.197951
    145 C48        -6.6350   -0.9900    0.6140 c3        1 MOL     -0.254680
    146 C49        -5.7930   -1.3700    1.8450 c         1 MOL      0.425784
    147 O21        -6.2360   -2.0550    2.7400 o         1 MOL     -0.449346
    148 C50        -6.4610   -1.9870   -0.5520 c3        1 MOL      0.250254
    149 C51        -7.5760   -1.9260   -1.6990 c3        1 MOL     -0.251553
    150 C52        -9.0040   -2.3770   -1.2260 c         1 MOL      0.730089
    151 O22        -9.1020   -3.0770   -0.2190 o         1 MOL     -0.717786
    152 O23       -10.0330   -1.9550   -1.8510 o         1 MOL     -0.717786
    153 H65        -6.4430    0.6490   -0.8370 hn        1 MOL      0.300873
    154 H66        -7.6960   -1.0560    0.8720 h1        1 MOL      0.162032
    155 H67        -6.3940   -3.0090   -0.1800 hc        1 MOL     -0.050185
    156 H68        -5.5600   -1.5520   -0.9930 hc        1 MOL     -0.050185
    157 H69        -7.1600   -2.5670   -2.4770 hc        1 MOL      0.026409
    158 H70        -7.5530   -0.8850   -2.0380 hc        1 MOL      0.026409
    159 N14        -4.5080   -0.8600    1.7680 n         1 MOL     -0.287670
    160 C53        -3.6250   -1.0090    2.8530 c3        1 MOL     -0.005353
    161 C54        -3.9640   -0.2400    4.1620 c         1 MOL      0.384227
    162 O24        -3.7630   -0.7800    5.2480 o         1 MOL     -0.577514
    163 C55        -2.1800   -0.7300    2.3940 c3        1 MOL      0.007837
    164 C56        -1.6380   -1.6280    1.2660 c3        1 MOL     -0.032615
    165 C57        -0.1750   -1.2110    0.7370 c         1 MOL      0.590938
    166 O25         0.5200   -1.9830   -0.0030 o         1 MOL     -0.569909
    167 O26         0.2580   -0.0550    0.7850 o         1 MOL     -0.569909
    168 H71        -4.1130   -0.5180    0.8990 hn        1 MOL      0.235282
    169 H72        -3.7810   -2.0530    3.1110 h1        1 MOL      0.072638
    170 H73        -1.4930   -0.6200    3.2310 hc        1 MOL      0.025301
    171 H74        -2.2390    0.2340    1.9090 hc        1 MOL      0.025301
    172 H75        -2.2940   -1.6580    0.3920 hc        1 MOL     -0.013099
    173 H76        -1.6170   -2.6330    1.6850 hc        1 MOL     -0.013099
    174 N15        -4.3890    0.9880    4.0260 n         1 MOL      0.086751
    175 C58        -4.8010    1.8710    5.1220 c3        1 MOL     -0.217997
    176 H77        -4.0280    2.6190    5.2950 h1        1 MOL      0.074781
    177 H78        -5.7340    2.3680    4.8580 h1        1 MOL      0.074781
    178 H79        -4.9460    1.2830    6.0280 h1        1 MOL      0.074781
    179 H80        -4.4000    1.2570    3.0520 hn        1 MOL      0.008487
    180 Ca1         2.7130   -0.3420    0.0850 Ca        1 MOL      1.738059
    181 O27         2.1830   -0.6830    2.7780 oh        1 MOL     -1.023937
    182 H81         2.5810   -0.1540    3.4700 ho        1 MOL      0.457934
    183 H82         1.5020   -1.1920    3.2300 ho        1 MOL      0.457934
    184 O28         4.7200    0.0450    1.7350 oh        1 MOL     -1.023937
    185 H83         4.6450    0.4140    2.6100 ho        1 MOL      0.457934
    186 H84         5.3790   -0.6420    1.8170 ho        1 MOL      0.457934
    187 O29         1.5120    0.9980   -2.0600 oh        1 MOL     -1.023937
    188 H85         2.2510    1.5100   -2.3830 ho        1 MOL      0.457934
    189 H86         1.2590    0.4480   -2.7990 ho        1 MOL      0.457934
@<TRIPOS>BOND
     1    1    2 1   
     2    1    4 1   
     3    1    5 1   
     4    1    6 1   
     5    2    3 2   
     6    2    7 1   
     7    7    8 1   
     8    7   15 1   
     9    8    9 1   
    10    8   11 1   
    11    8   16 1   
    12    9   10 2   
    13    9   19 1   
    14   11   12 1   
    15   11   17 1   
    16   11   18 1   
    17   12   13 1   
    18   12   14 1   
    19   19   20 1   
    20   19   27 1   
    21   20   21 1   
    22   20   23 1   
    23   20   28 1   
    24   21   22 2   
    25   21   38 1   
    26   23   24 1   
    27   23   25 1   
    28   23   29 1   
    29   24   26 1   
    30   24   30 1   
    31   24   31 1   
    32   25   32 1   
    33   25   33 1   
    34   25   34 1   
    35   26   35 1   
    36   26   36 1   
    37   26   37 1   
    38   38   39 1   
    39   38   46 1   
    40   39   40 1   
    41   39   42 1   
    42   39   47 1   
    43   40   41 2   
    44   40   50 1   
    45   42   43 1   
    46   42   48 1   
    47   42   49 1   
    48   43   44 1   
    49   43   45 1   
    50   50   51 1   
    51   50   54 1   
    52   51   52 1   
    53   51   55 1   
    54   51   56 1   
    55   52   53 2   
    56   52   57 1   
    57   57   58 1   
    58   57   65 1   
    59   58   59 1   
    60   58   61 1   
    61   58   66 1   
    62   59   60 2   
    63   59   69 1   
    64   61   62 1   
    65   61   67 1   
    66   61   68 1   
    67   62   63 1   
    68   62   64 1   
    69   69   70 1   
    70   69   73 1   
    71   70   71 1   
    72   70   74 1   
    73   70   75 1   
    74   71   72 2   
    75   71   76 1   
    76   76   77 1   
    77   76   85 1   
    78   77   78 1   
    79   77   80 1   
    80   77   86 1   
    81   78   79 2   
    82   78   93 1   
    83   80   81 1   
    84   80   87 1   
    85   80   88 1   
    86   81   82 1   
    87   81   89 1   
    88   81   90 1   
    89   82   83 1   
    90   82   84 2   
    91   83   91 1   
    92   83   92 1   
    93   93   94 1   
    94   93  100 1   
    95   94   95 1   
    96   94   97 1   
    97   94  101 1   
    98   95   96 2   
    99   95  109 1   
   100   97   98 1   
   101   97   99 1   
   102   97  102 1   
   103   98  103 1   
   104   98  104 1   
   105   98  105 1   
   106   99  106 1   
   107   99  107 1   
   108   99  108 1   
   109  109  110 1   
   110  109  117 1   
   111  110  111 1   
   112  110  113 1   
   113  110  118 1   
   114  111  112 2   
   115  111  123 1   
   116  113  114 1   
   117  113  119 1   
   118  113  120 1   
   119  114  115 1   
   120  114  116 2   
   121  115  121 1   
   122  115  122 1   
   123  123  124 1   
   124  123  135 1   
   125  124  125 1   
   126  124  127 1   
   127  124  136 1   
   128  125  126 2   
   129  125  144 1   
   130  127  128 1   
   131  127  137 1   
   132  127  138 1   
   133  128  129 ar  
   134  128  130 ar  
   135  129  131 ar  
   136  129  139 1   
   137  130  132 ar  
   138  130  140 1   
   139  131  133 ar  
   140  131  141 1   
   141  132  133 ar  
   142  132  142 1   
   143  133  134 1   
   144  134  143 1   
   145  144  145 1   
   146  144  153 1   
   147  145  146 1   
   148  145  148 1   
   149  145  154 1   
   150  146  147 2   
   151  146  159 1   
   152  148  149 1   
   153  148  155 1   
   154  148  156 1   
   155  149  150 1   
   156  149  157 1   
   157  149  158 1   
   158  150  151 1   
   159  150  152 1   
   160  159  160 1   
   161  159  168 1   
   162  160  161 1   
   163  160  163 1   
   164  160  169 1   
   165  161  162 2   
   166  161  174 1   
   167  163  164 1   
   168  163  170 1   
   169  163  171 1   
   170  164  165 1   
   171  164  172 1   
   172  164  173 1   
   173  165  166 1   
   174  165  167 1   
   175  174  175 1   
   176  174  179 1   
   177  175  176 1   
   178  175  177 1   
   179  175  178 1   
   180  181  182 1   
   181  181  183 1   
   182  184  185 1   
   183  184  186 1   
   184  187  188 1   
   185  187  189 1   
@<TRIPOS>SUBSTRUCTURE
     1 MOL         1 TEMP              0 ****  ****    0 ROOT
