@<TRIPOS>MOLECULE
MOL
  175   173     1     0     0
SMALL
resp


@<TRIPOS>ATOM
      1 C1          0.1950    3.8880    5.8410 c3        1 MOL     -0.471756
      2 C2         -0.2150    3.7560    4.3660 c         1 MOL      0.657695
      3 O1          0.6400    3.6700    3.4680 o         1 MOL     -0.530742
      4 H1         -0.6800    3.7400    6.4750 hc        1 MOL      0.117953
      5 H2          0.9470    3.1360    6.0790 hc        1 MOL      0.117953
      6 H3          0.6060    4.8820    6.0170 hc        1 MOL      0.117953
      7 N1         -1.4800    3.8100    4.0510 n         1 MOL     -0.531800
      8 C3         -2.0460    3.5470    2.6800 c3        1 MOL      0.012824
      9 C4         -1.8770    4.7390    1.6560 c         1 MOL      0.583277
     10 O2         -1.7770    5.9020    1.9990 o         1 MOL     -0.550007
     11 C5         -3.5640    3.2630    2.8970 c3        1 MOL     -0.337612
     12 C6         -4.2780    2.4420    1.8010 c         1 MOL      0.808336
     13 O3         -3.5960    2.1420    0.7920 o         1 MOL     -0.691457
     14 O4         -5.5310    2.1920    1.9400 o         1 MOL     -0.691457
     15 H4         -2.1270    4.0460    4.7890 hn        1 MOL      0.321226
     16 H5         -1.5370    2.6930    2.2330 h1        1 MOL      0.140535
     17 H6         -4.0570    4.2330    3.0040 hc        1 MOL      0.070178
     18 H7         -3.6100    2.7090    3.8410 hc        1 MOL      0.070178
     19 N2         -1.9050    4.3400    0.3510 n         1 MOL     -0.489137
     20 C7         -2.0140    5.3310   -0.7540 c3        1 MOL      0.258451
     21 C8         -3.1510    5.0180   -1.7190 c         1 MOL      0.521101
     22 O5         -3.2540    5.7810   -2.6750 o         1 MOL     -0.577361
     23 C9         -0.6630    5.3060   -1.4200 c3        1 MOL     -0.243512
     24 H8         -2.1670    3.3870    0.1610 hn        1 MOL      0.339913
     25 H9         -2.2340    6.2910   -0.2900 h1        1 MOL      0.006419
     26 H10        -0.6240    6.0320   -2.2390 hc        1 MOL      0.060713
     27 H11         0.1500    5.4880   -0.7250 hc        1 MOL      0.060713
     28 H12        -0.5210    4.3470   -1.9100 hc        1 MOL      0.060713
     29 N3         -4.0120    4.0380   -1.5120 n         1 MOL     -0.508733
     30 C10        -4.9130    3.6180   -2.5980 c3        1 MOL      0.199746
     31 C11        -6.1770    2.8870   -2.2570 c         1 MOL      0.301966
     32 O6         -7.2110    2.8820   -2.9640 o         1 MOL     -0.566736
     33 C12        -4.0920    2.7730   -3.6010 c3        1 MOL     -0.178331
     34 C13        -3.3150    1.5540   -3.0570 c         1 MOL      0.783141
     35 O7         -3.6250    1.1180   -1.9360 o         1 MOL     -0.705209
     36 O8         -2.4150    1.0540   -3.7290 o         1 MOL     -0.705209
     37 H13        -3.7960    3.4760   -0.6970 hn        1 MOL      0.213154
     38 H14        -5.3030    4.4740   -3.1280 h1        1 MOL      0.067454
     39 H15        -3.5000    3.4860   -4.1800 hc        1 MOL      0.030343
     40 H16        -4.7280    2.3090   -4.3600 hc        1 MOL      0.030343
     41 N4         -6.1940    2.2650   -1.0960 n         1 MOL     -0.019451
     42 C14        -7.2940    1.4740   -0.4800 c3        1 MOL     -0.447947
     43 C15        -7.2520    0.0130   -0.9550 c         1 MOL      0.597825
     44 O9         -8.1070   -0.7810   -0.5620 o         1 MOL     -0.622036
     45 H17        -5.3330    2.3370   -0.5720 hn        1 MOL      0.113955
     46 H18        -8.2120    2.0060   -0.7500 h1        1 MOL      0.187208
     47 H19        -7.1900    1.3890    0.6030 h1        1 MOL      0.187208
     48 N5         -6.1340   -0.4420   -1.5760 n         1 MOL     -0.369858
     49 C16        -6.0490   -1.8140   -2.2020 c3        1 MOL      0.016637
     50 C17        -6.2850   -3.0450   -1.1990 c         1 MOL      0.421695
     51 O10        -6.5690   -4.1910   -1.6600 o         1 MOL     -0.555604
     52 C18        -4.9090   -2.0490   -3.1940 c3        1 MOL      0.001870
     53 C19        -3.6070   -2.1850   -2.4530 c         1 MOL      0.472135
     54 N6         -2.5810   -2.7310   -3.0870 n         1 MOL     -0.517756
     55 O11        -3.4750   -1.9820   -1.2580 o         1 MOL     -0.561418
     56 H20        -5.3680    0.2170   -1.6240 hn        1 MOL      0.267790
     57 H21        -6.8500   -1.8620   -2.9390 h1        1 MOL      0.071456
     58 H22        -4.7410   -1.1580   -3.7920 hc        1 MOL      0.023627
     59 H23        -5.1240   -2.8980   -3.8380 hc        1 MOL      0.023627
     60 H24        -2.8070   -3.0990   -3.9960 hn        1 MOL      0.287037
     61 H25        -1.6430   -2.4770   -2.8000 hn        1 MOL      0.287037
     62 N7         -6.2640   -2.7860    0.1280 n         1 MOL     -0.067838
     63 C20        -6.4660   -3.8060    1.1330 c3        1 MOL     -0.246952
     64 C21        -5.1220   -4.2600    1.7990 c         1 MOL      0.607374
     65 O12        -5.2180   -4.8780    2.8110 o         1 MOL     -0.583950
     66 H26        -5.8950   -1.9090    0.4470 hn        1 MOL      0.185075
     67 H27        -6.9270   -4.7140    0.7500 h1        1 MOL      0.104348
     68 H28        -7.0940   -3.3990    1.9310 h1        1 MOL      0.104348
     69 N8         -3.9840   -3.7640    1.2970 n         1 MOL     -0.404208
     70 C22        -2.6770   -4.4110    1.4430 c3        1 MOL     -0.062323
     71 C23        -1.5920   -3.4000    1.5520 c         1 MOL      0.685559
     72 O13        -1.7460   -2.2880    1.1030 o         1 MOL     -0.703337
     73 C24        -2.4560   -5.4110    0.2760 c3        1 MOL      0.591468
     74 C25        -3.4310   -6.6710    0.2290 c3        1 MOL     -0.660996
     75 O14        -2.5610   -4.8080   -1.0280 oh        1 MOL     -0.618576
     76 H29        -3.9420   -3.1230    0.5190 hn        1 MOL      0.244363
     77 H30        -2.7050   -4.9130    2.4140 h1        1 MOL      0.038043
     78 H31        -1.4300   -5.7560    0.3640 h1        1 MOL     -0.090267
     79 H32        -2.0690   -3.9780   -1.0130 ho        1 MOL      0.345597
     80 H33        -3.3040   -7.0540   -0.7840 hc        1 MOL      0.173385
     81 H34        -3.0050   -7.2590    1.0400 hc        1 MOL      0.173385
     82 H35        -4.4940   -6.4540    0.2760 hc        1 MOL      0.173385
     83 N9         -0.4640   -3.8230    2.0920 n         1 MOL     -0.508387
     84 C26         0.7940   -3.0490    1.8520 c3        1 MOL      0.244338
     85 C27         1.2460   -3.2260    0.4110 c         1 MOL      0.464920
     86 O15         1.1410   -4.2900   -0.1620 o         1 MOL     -0.568145
     87 C28         1.9020   -3.5200    2.8510 c3        1 MOL     -0.129986
     88 C29         1.3820   -3.5600    4.2770 c3        1 MOL      0.164899
     89 C30         3.2500   -2.6830    2.7130 c3        1 MOL      0.008868
     90 C31         0.5970   -2.3000    4.6230 c3        1 MOL     -0.429610
     91 H36        -0.3980   -4.7900    2.4000 hn        1 MOL      0.256965
     92 H37         0.5750   -1.9980    2.0520 h1        1 MOL      0.110962
     93 H38         2.1790   -4.5260    2.5560 hc        1 MOL      0.012458
     94 H39         2.1550   -3.8050    5.0100 hc        1 MOL     -0.018765
     95 H40         0.7550   -4.4370    4.4530 hc        1 MOL     -0.018765
     96 H41         3.7010   -2.9030    1.7570 hc        1 MOL     -0.001115
     97 H42         3.0720   -1.6180    2.8510 hc        1 MOL     -0.001115
     98 H43         3.9740   -3.0270    3.4480 hc        1 MOL     -0.001115
     99 H44         0.3820   -2.3740    5.6930 hc        1 MOL      0.100138
    100 H45         1.3560   -1.5280    4.5580 hc        1 MOL      0.100138
    101 H46        -0.3140   -2.1440    4.0300 hc        1 MOL      0.100138
    102 N10         1.7570   -2.1330   -0.1090 n         1 MOL     -0.103333
    103 C32         2.6610   -1.9820   -1.2720 c3        1 MOL     -0.073919
    104 C33         4.1170   -1.4960   -0.9460 c         1 MOL      0.587370
    105 O16         4.4100   -0.9900    0.1770 o         1 MOL     -0.388620
    106 C34         1.9690   -1.0230   -2.2300 c3        1 MOL     -0.281827
    107 C35         0.5250   -1.3810   -2.4330 c         1 MOL      0.815086
    108 O17        -0.3500   -0.7950   -1.7180 o         1 MOL     -0.686430
    109 O18         0.2540   -2.2060   -3.3650 o         1 MOL     -0.686430
    110 H47         1.6020   -1.2770    0.4040 hn        1 MOL      0.009440
    111 H48         2.8160   -2.9190   -1.7950 h1        1 MOL      0.093539
    112 H49         2.4620   -0.8570   -3.1960 hc        1 MOL      0.076468
    113 H50         1.9630   -0.0460   -1.7620 hc        1 MOL      0.076468
    114 N11         5.1320   -1.7020   -1.8160 n         1 MOL     -0.850628
    115 C36         6.5560   -1.4540   -1.5170 c3        1 MOL      0.687853
    116 C37         6.8040    0.0220   -1.1620 c         1 MOL      0.145710
    117 O19         7.5630    0.1930   -0.2270 o         1 MOL     -0.432955
    118 C38         7.4750   -1.9390   -2.6430 c3        1 MOL     -0.483788
    119 C39         8.9230   -1.6800   -2.2100 ca        1 MOL      0.277933
    120 C40         9.4750   -2.5740   -1.2860 ca        1 MOL     -0.277251
    121 C41         9.6320   -0.6350   -2.7580 ca        1 MOL     -0.277251
    122 C42        10.7370   -2.3360   -0.8000 ca        1 MOL     -0.021687
    123 C43        10.9510   -0.3940   -2.2820 ca        1 MOL     -0.021687
    124 C44        11.4980   -1.2800   -1.3230 ca        1 MOL     -0.214588
    125 H51         4.8580   -2.1610   -2.6680 hn        1 MOL      0.371978
    126 H52         6.7970   -2.0240   -0.6170 h1        1 MOL     -0.000451
    127 H53         7.2310   -1.3900   -3.5470 hc        1 MOL      0.124397
    128 H54         7.3330   -3.0080   -2.7550 hc        1 MOL      0.124397
    129 H55         8.8220   -3.3650   -0.9500 ha        1 MOL      0.136706
    130 H56         9.1570   -0.0480   -3.5240 ha        1 MOL      0.136706
    131 H57        11.1630   -2.8890    0.0200 ha        1 MOL      0.100870
    132 H58        11.5250    0.4400   -2.6710 ha        1 MOL      0.100870
    133 H59        12.4810   -1.0230   -0.9530 ha        1 MOL      0.122673
    134 N12         6.2460    1.1040   -1.7930 n         1 MOL     -0.048752
    135 C45         6.4380    2.4970   -1.2870 c3        1 MOL      0.107154
    136 C46         5.8960    2.7620    0.1370 c         1 MOL      0.233053
    137 O20         6.4710    3.6230    0.8460 o         1 MOL     -0.527161
    138 C47         5.8570    3.4390   -2.2820 c3        1 MOL      0.102939
    139 C48         5.4770    2.6140   -3.4750 c3        1 MOL     -0.388326
    140 C49         5.3910    1.1810   -2.9550 c3        1 MOL      0.058603
    141 H60         7.5070    2.6980   -1.1900 h1        1 MOL      0.040580
    142 H61         4.9630    3.8270   -1.7870 hc        1 MOL      0.015310
    143 H62         6.5510    4.2630   -2.4380 hc        1 MOL      0.015310
    144 H63         4.4450    2.8530   -3.7400 hc        1 MOL      0.119668
    145 H64         6.2380    2.6630   -4.2610 hc        1 MOL      0.119668
    146 H65         4.3620    1.0310   -2.6320 h1        1 MOL      0.042619
    147 H66         5.6890    0.4520   -3.7000 h1        1 MOL      0.042619
    148 N13         4.9600    2.0110    0.5340 n         1 MOL     -0.005684
    149 C50         4.3370    2.0460    1.8960 c3        1 MOL     -0.142047
    150 C51         5.0550    1.1740    2.9110 c         1 MOL      0.463734
    151 O21         5.0420    1.3720    4.1120 o         1 MOL     -0.554785
    152 C52         2.8400    1.5610    1.8570 c3        1 MOL      0.007070
    153 C53         1.9380    1.9370    0.6440 c3        1 MOL     -0.082032
    154 C54         0.5170    1.3210    0.5930 c         1 MOL      0.629850
    155 O22        -0.3440    1.8520   -0.1150 o         1 MOL     -0.751402
    156 O23         0.2400    0.3270    1.2610 o         1 MOL     -0.751402
    157 H67         4.7180    1.2110   -0.0310 hn        1 MOL      0.055847
    158 H68         4.2890    3.0730    2.2650 h1        1 MOL      0.130684
    159 H69         2.2960    1.9360    2.7210 hc        1 MOL      0.043865
    160 H70         2.7620    0.4720    1.8880 hc        1 MOL      0.043865
    161 H71         2.4300    1.5060   -0.2310 hc        1 MOL      0.061858
    162 H72         1.8790    3.0070    0.4270 hc        1 MOL      0.061858
    163 N14         5.7830    0.1370    2.4340 n         1 MOL     -0.080069
    164 C55         6.6560   -0.7290    3.2140 c3        1 MOL     -0.107832
    165 H73         7.5470   -0.9640    2.6330 h1        1 MOL      0.051035
    166 H74         6.9460   -0.2190    4.1330 h1        1 MOL      0.051035
    167 H75         6.1300   -1.6510    3.4600 h1        1 MOL      0.051035
    168 H76         5.7140   -0.0970    1.4490 hn        1 MOL      0.072842
    169 Ca1        -2.1350    0.0420   -0.0220 Ca        1 MOL      1.706903
    170 O24        -4.7200   -0.5440    1.1160 oh        1 MOL     -0.774035
    171 H77        -4.9490   -0.8220    2.0030 ho        1 MOL      0.389495
    172 H78        -4.9400    0.3900    1.0900 ho        1 MOL      0.389495
    173 O25        -2.0990    0.4140    2.6900 oh        1 MOL     -0.774035
    174 H79        -1.1400    0.4590    2.6060 ho        1 MOL      0.389495
    175 H80        -2.2600    0.5170    3.6240 ho        1 MOL      0.389495
@<TRIPOS>BOND
     1    1    2 1   
     2    1    4 1   
     3    1    5 1   
     4    1    6 1   
     5    2    3 2   
     6    2    7 1   
     7    7    8 1   
     8    7   15 1   
     9    8    9 1   
    10    8   11 1   
    11    8   16 1   
    12    9   10 2   
    13    9   19 1   
    14   11   12 1   
    15   11   17 1   
    16   11   18 1   
    17   12   13 1   
    18   12   14 1   
    19   19   20 1   
    20   19   24 1   
    21   20   21 1   
    22   20   23 1   
    23   20   25 1   
    24   21   22 2   
    25   21   29 1   
    26   23   26 1   
    27   23   27 1   
    28   23   28 1   
    29   29   30 1   
    30   29   37 1   
    31   30   31 1   
    32   30   33 1   
    33   30   38 1   
    34   31   32 2   
    35   31   41 1   
    36   33   34 1   
    37   33   39 1   
    38   33   40 1   
    39   34   35 1   
    40   34   36 1   
    41   41   42 1   
    42   41   45 1   
    43   42   43 1   
    44   42   46 1   
    45   42   47 1   
    46   43   44 2   
    47   43   48 1   
    48   48   49 1   
    49   48   56 1   
    50   49   50 1   
    51   49   52 1   
    52   49   57 1   
    53   50   51 2   
    54   50   62 1   
    55   52   53 1   
    56   52   58 1   
    57   52   59 1   
    58   53   54 1   
    59   53   55 2   
    60   54   60 1   
    61   54   61 1   
    62   62   63 1   
    63   62   66 1   
    64   63   64 1   
    65   63   67 1   
    66   63   68 1   
    67   64   65 2   
    68   64   69 1   
    69   69   70 1   
    70   69   76 1   
    71   70   71 1   
    72   70   73 1   
    73   70   77 1   
    74   71   72 2   
    75   71   83 1   
    76   73   74 1   
    77   73   75 1   
    78   73   78 1   
    79   74   80 1   
    80   74   81 1   
    81   74   82 1   
    82   75   79 1   
    83   83   84 1   
    84   83   91 1   
    85   84   85 1   
    86   84   87 1   
    87   84   92 1   
    88   85   86 2   
    89   85  102 1   
    90   87   88 1   
    91   87   89 1   
    92   87   93 1   
    93   88   90 1   
    94   88   94 1   
    95   88   95 1   
    96   89   96 1   
    97   89   97 1   
    98   89   98 1   
    99   90   99 1   
   100   90  100 1   
   101   90  101 1   
   102  102  103 1   
   103  102  110 1   
   104  103  104 1   
   105  103  106 1   
   106  103  111 1   
   107  104  105 2   
   108  104  114 1   
   109  106  107 1   
   110  106  112 1   
   111  106  113 1   
   112  107  108 1   
   113  107  109 1   
   114  114  115 1   
   115  114  125 1   
   116  115  116 1   
   117  115  118 1   
   118  115  126 1   
   119  116  117 2   
   120  116  134 1   
   121  118  119 1   
   122  118  127 1   
   123  118  128 1   
   124  119  120 ar  
   125  119  121 ar  
   126  120  122 ar  
   127  120  129 1   
   128  121  123 ar  
   129  121  130 1   
   130  122  124 ar  
   131  122  131 1   
   132  123  124 ar  
   133  123  132 1   
   134  124  133 1   
   135  134  135 1   
   136  134  140 1   
   137  135  136 1   
   138  135  138 1   
   139  135  141 1   
   140  136  137 2   
   141  136  148 1   
   142  138  139 1   
   143  138  142 1   
   144  138  143 1   
   145  139  140 1   
   146  139  144 1   
   147  139  145 1   
   148  140  146 1   
   149  140  147 1   
   150  148  149 1   
   151  148  157 1   
   152  149  150 1   
   153  149  152 1   
   154  149  158 1   
   155  150  151 2   
   156  150  163 1   
   157  152  153 1   
   158  152  159 1   
   159  152  160 1   
   160  153  154 1   
   161  153  161 1   
   162  153  162 1   
   163  154  155 1   
   164  154  156 1   
   165  163  164 1   
   166  163  168 1   
   167  164  165 1   
   168  164  166 1   
   169  164  167 1   
   170  170  171 1   
   171  170  172 1   
   172  173  174 1   
   173  173  175 1   
@<TRIPOS>SUBSTRUCTURE
     1 MOL         1 TEMP              0 ****  ****    0 ROOT
