@<TRIPOS>MOLECULE
MOL
  175   173     1     0     0
SMALL
resp


@<TRIPOS>ATOM
      1 C1          1.0390    4.0400    5.7240 c3        1 MOL     -0.440869
      2 C2          0.5870    3.8920    4.3120 c         1 MOL      0.734283
      3 O1          1.3820    3.8880    3.3330 o         1 MOL     -0.569145
      4 H1          1.3530    5.0700    5.8990 hc        1 MOL      0.113567
      5 H2          0.2180    3.7930    6.3970 hc        1 MOL      0.113567
      6 H3          1.8770    3.3690    5.9100 hc        1 MOL      0.113567
      7 N1         -0.7480    3.7910    4.0980 n         1 MOL     -0.674099
      8 C3         -1.4030    3.6190    2.8040 c3        1 MOL      0.173491
      9 C4         -1.4530    4.8080    1.8540 c         1 MOL      0.527806
     10 O2         -1.8590    5.9130    2.2260 o         1 MOL     -0.585318
     11 C5         -2.7900    3.0860    3.0690 c3        1 MOL     -0.023724
     12 C6         -3.5860    2.8360    1.7920 c         1 MOL      0.567167
     13 O3         -4.7490    3.3460    1.6650 o         1 MOL     -0.607286
     14 O4         -3.0610    2.2610    0.8480 o         1 MOL     -0.607286
     15 H4         -1.3490    3.9520    4.8870 hn        1 MOL      0.340536
     16 H5         -0.9020    2.8530    2.2010 h1        1 MOL      0.048989
     17 H6         -3.4020    3.7080    3.7290 hc        1 MOL     -0.022149
     18 H7         -2.7520    2.1080    3.5620 hc        1 MOL     -0.022149
     19 N2         -1.2760    4.6590    0.5330 n         1 MOL     -0.386087
     20 C7         -1.4830    5.6600   -0.5290 c3        1 MOL      0.362245
     21 C8         -2.6280    5.2490   -1.4870 c         1 MOL      0.455792
     22 O5         -3.0690    6.1570   -2.1790 o         1 MOL     -0.613723
     23 C9         -0.1940    5.8580   -1.2680 c3        1 MOL     -0.365878
     24 H8         -0.9370    3.7620    0.2100 hn        1 MOL      0.160741
     25 H9         -1.8350    6.6120   -0.1360 h1        1 MOL      0.014266
     26 H10         0.5790    6.0370   -0.5140 hc        1 MOL      0.085248
     27 H11        -0.0340    4.9770   -1.8850 hc        1 MOL      0.085248
     28 H12        -0.2000    6.7500   -1.8950 hc        1 MOL      0.085248
     29 N3         -3.2930    4.0970   -1.4610 n         1 MOL     -0.161618
     30 C10        -4.3590    3.7120   -2.4410 c3        1 MOL      0.013464
     31 C11        -5.5270    2.8970   -1.9470 c         1 MOL      0.405098
     32 O6         -6.5820    2.8860   -2.6280 o         1 MOL     -0.589780
     33 C12        -3.7180    2.9340   -3.6520 c3        1 MOL     -0.203306
     34 C13        -2.9700    1.6250   -3.3100 c         1 MOL      0.665862
     35 O7         -3.3000    0.9170   -2.2980 o         1 MOL     -0.630184
     36 O8         -2.0190    1.3870   -3.9830 o         1 MOL     -0.630184
     37 H13        -3.1190    3.4400   -0.7100 hn        1 MOL      0.114491
     38 H14        -4.7960    4.6140   -2.8640 h1        1 MOL      0.089201
     39 H15        -2.9400    3.5690   -4.0840 hc        1 MOL      0.043652
     40 H16        -4.5290    2.7350   -4.3570 hc        1 MOL      0.043652
     41 N4         -5.5030    2.3020   -0.7390 n         1 MOL      0.116863
     42 C14        -6.6180    1.6250   -0.0910 c3        1 MOL     -0.390369
     43 C15        -7.1630    0.3710   -0.8420 c         1 MOL      0.531591
     44 O9         -8.2400   -0.1290   -0.4120 o         1 MOL     -0.608285
     45 H17        -4.7120    2.5180   -0.1500 hn        1 MOL     -0.068053
     46 H18        -7.4090    2.3800   -0.1790 h1        1 MOL      0.150809
     47 H19        -6.4130    1.3720    0.9460 h1        1 MOL      0.150809
     48 N5         -6.3520   -0.2580   -1.7010 n         1 MOL     -0.173999
     49 C16        -6.4930   -1.6910   -2.1430 c3        1 MOL     -0.194947
     50 C17        -6.4590   -2.8420   -1.0250 c         1 MOL      0.533936
     51 O10        -6.3080   -4.0050   -1.3650 o         1 MOL     -0.488258
     52 C18        -5.4080   -2.0440   -3.2070 c3        1 MOL      0.027563
     53 C19        -3.9860   -2.1460   -2.6730 c         1 MOL      0.435132
     54 N6         -3.0420   -2.5430   -3.5510 n         1 MOL     -0.527084
     55 O11        -3.6350   -1.9630   -1.4680 o         1 MOL     -0.606144
     56 H20        -5.4270    0.1370   -1.7780 hn        1 MOL      0.107954
     57 H21        -7.4350   -1.7250   -2.6920 h1        1 MOL      0.132524
     58 H22        -5.4470   -1.2010   -3.9000 hc        1 MOL      0.041939
     59 H23        -5.6310   -2.8890   -3.8500 hc        1 MOL      0.041939
     60 H24        -3.3380   -2.8480   -4.4710 hn        1 MOL      0.308200
     61 H25        -2.0710   -2.5230   -3.2790 hn        1 MOL      0.308200
     62 N7         -6.6190   -2.5170    0.2880 n         1 MOL     -0.400805
     63 C20        -6.5620   -3.3810    1.4660 c3        1 MOL     -0.153679
     64 C21        -5.2490   -4.1270    1.7890 c         1 MOL      0.482741
     65 O12        -5.2870   -5.0240    2.6650 o         1 MOL     -0.588167
     66 H26        -6.6770   -1.5660    0.6400 hn        1 MOL      0.339237
     67 H27        -7.2570   -4.2280    1.4130 h1        1 MOL      0.103011
     68 H28        -6.8350   -2.8550    2.3750 h1        1 MOL      0.103011
     69 N8         -4.1720   -3.7380    1.1360 n         1 MOL     -0.062066
     70 C22        -2.8550   -4.4620    1.2520 c3        1 MOL     -0.173374
     71 C23        -1.7050   -3.4150    1.3720 c         1 MOL      0.369685
     72 O13        -1.8560   -2.3140    0.7780 o         1 MOL     -0.480782
     73 C24        -2.4550   -5.3250    0.0170 c3        1 MOL      0.676669
     74 C25        -3.2110   -6.6510    0.1160 c3        1 MOL     -0.394435
     75 O14        -2.8400   -4.6880   -1.1780 oh        1 MOL     -0.637869
     76 H29        -4.1250   -2.8350    0.7000 hn        1 MOL      0.041319
     77 H30        -2.7800   -5.0310    2.1800 h1        1 MOL      0.078174
     78 H31        -1.4080   -5.6150    0.0060 h1        1 MOL     -0.071257
     79 H32        -2.9180   -3.7530   -0.9780 ho        1 MOL      0.365097
     80 H33        -3.0370   -7.2580   -0.7710 hc        1 MOL      0.079043
     81 H34        -2.8310   -7.1560    1.0050 hc        1 MOL      0.079043
     82 H35        -4.2680   -6.4360    0.2760 hc        1 MOL      0.079043
     83 N9         -0.6010   -3.7480    2.0450 n         1 MOL     -0.325751
     84 C26         0.6580   -3.0190    2.0160 c3        1 MOL      0.109622
     85 C27         1.2960   -3.2730    0.6110 c         1 MOL      0.324142
     86 O15         1.4400   -4.4170    0.1510 o         1 MOL     -0.522942
     87 C28         1.5000   -3.5500    3.2190 c3        1 MOL      0.031237
     88 C29         1.3330   -2.7110    4.4600 c3        1 MOL      0.155522
     89 C30         3.0000   -3.5530    2.8210 c3        1 MOL     -0.262554
     90 C31         1.7890   -3.2310    5.8860 c3        1 MOL     -0.270494
     91 H36        -0.5620   -4.6730    2.4340 hn        1 MOL      0.232946
     92 H37         0.3820   -1.9800    2.1820 h1        1 MOL     -0.011355
     93 H38         1.1660   -4.5670    3.4140 hc        1 MOL      0.033592
     94 H39         0.2420   -2.6720    4.5100 hc        1 MOL     -0.036179
     95 H40         1.6880   -1.6910    4.3190 hc        1 MOL     -0.036179
     96 H41         3.3500   -2.5510    2.5660 hc        1 MOL      0.055280
     97 H42         3.6140   -3.9020    3.6550 hc        1 MOL      0.055280
     98 H43         3.0480   -4.3020    2.0330 hc        1 MOL      0.055280
     99 H44         1.7170   -4.3070    6.0460 hc        1 MOL      0.063515
    100 H45         2.7850   -2.8160    6.0480 hc        1 MOL      0.063515
    101 H46         1.1710   -2.7510    6.6520 hc        1 MOL      0.063515
    102 N10         1.5520   -2.1750   -0.1290 n         1 MOL     -0.028585
    103 C32         2.3170   -2.1480   -1.3160 c3        1 MOL      0.171957
    104 C33         3.7830   -1.8410   -1.0840 c         1 MOL      0.329224
    105 O16         4.0980   -1.3190   -0.0310 o         1 MOL     -0.300895
    106 C34         1.7240   -1.2840   -2.4000 c3        1 MOL     -0.281148
    107 C35         0.2660   -1.2680   -2.6660 c         1 MOL      0.711958
    108 O17        -0.3760   -0.5560   -1.8870 o         1 MOL     -0.670632
    109 O18        -0.2030   -2.0300   -3.5660 o         1 MOL     -0.670632
    110 H47         1.1170   -1.3410    0.2490 hn        1 MOL      0.032017
    111 H48         2.2540   -3.1590   -1.7240 h1        1 MOL      0.027886
    112 H49         2.4010   -1.3700   -3.2510 hc        1 MOL      0.070117
    113 H50         1.9240   -0.2650   -2.0700 hc        1 MOL      0.070117
    114 N11         4.6850   -1.9850   -2.0760 n         1 MOL     -0.525820
    115 C36         6.1090   -1.5520   -1.9220 c3        1 MOL      0.151964
    116 C37         6.4010   -0.0940   -1.3850 c         1 MOL      0.470036
    117 O19         7.0780   -0.0520   -0.3810 o         1 MOL     -0.480017
    118 C38         7.0200   -1.9390   -3.1590 c3        1 MOL     -0.108661
    119 C39         8.4020   -1.6230   -2.7660 ca        1 MOL      0.035551
    120 C40         9.0710   -2.4550   -1.8410 ca        1 MOL     -0.166232
    121 C41         8.9330   -0.3980   -3.0820 ca        1 MOL     -0.166232
    122 C42        10.3860   -2.1180   -1.4150 ca        1 MOL     -0.131518
    123 C43        10.2230   -0.0450   -2.5740 ca        1 MOL     -0.131518
    124 C44        10.9840   -0.9210   -1.7880 ca        1 MOL     -0.062726
    125 H51         4.4460   -2.2570   -3.0120 hn        1 MOL      0.307048
    126 H52         6.4850   -2.2080   -1.1340 h1        1 MOL      0.085561
    127 H53         6.8090   -1.3610   -4.0560 hc        1 MOL      0.049074
    128 H54         6.9180   -3.0130   -3.3530 hc        1 MOL      0.049074
    129 H55         8.6040   -3.3570   -1.4800 ha        1 MOL      0.124263
    130 H56         8.4990    0.2490   -3.8270 ha        1 MOL      0.124263
    131 H57        10.8660   -2.7500   -0.6830 ha        1 MOL      0.111505
    132 H58        10.5850    0.9200   -2.8950 ha        1 MOL      0.111505
    133 H59        12.0010   -0.6370   -1.5590 ha        1 MOL      0.090580
    134 N12         5.7260    0.9930   -1.8430 n         1 MOL     -0.092291
    135 C45         6.0360    2.3400   -1.2790 c3        1 MOL     -0.061207
    136 C46         5.7480    2.4900    0.2280 c         1 MOL      0.376684
    137 O20         6.3900    3.2370    0.9520 o         1 MOL     -0.521055
    138 C47         5.0540    3.2660   -2.0490 c3        1 MOL     -0.090489
    139 C48         4.0590    2.3970   -2.7680 c3        1 MOL     -0.036601
    140 C49         4.9010    1.1490   -3.0370 c3        1 MOL      0.007880
    141 H60         7.0760    2.6540   -1.3400 h1        1 MOL      0.082134
    142 H61         4.5940    4.0620   -1.4850 hc        1 MOL      0.050041
    143 H62         5.6080    3.7720   -2.8420 hc        1 MOL      0.050041
    144 H63         3.1030    2.1400   -2.3050 hc        1 MOL      0.060553
    145 H64         3.7600    2.9370   -3.6690 hc        1 MOL      0.060553
    146 H65         4.2030    0.3350   -3.2140 h1        1 MOL      0.005185
    147 H66         5.5490    1.2480   -3.9060 h1        1 MOL      0.005185
    148 N13         4.8100    1.6650    0.7440 n         1 MOL     -0.139160
    149 C50         4.1790    1.5440    2.0990 c3        1 MOL      0.020930
    150 C51         4.8510    0.5340    3.0200 c         1 MOL      0.439176
    151 O21         5.0940    0.7470    4.1470 o         1 MOL     -0.552236
    152 C52         2.6720    1.1230    1.8800 c3        1 MOL      0.088062
    153 C53         1.9670    1.7760    0.7270 c3        1 MOL     -0.053845
    154 C54         0.4710    1.3180    0.5740 c         1 MOL      0.569845
    155 O22         0.0900    0.3270    1.2510 o         1 MOL     -0.642622
    156 O23        -0.3270    1.8150   -0.2390 o         1 MOL     -0.642622
    157 H67         4.4180    1.0360    0.0590 hn        1 MOL      0.086494
    158 H68         4.1520    2.5370    2.5440 h1        1 MOL      0.062765
    159 H69         2.1700    1.3490    2.8260 hc        1 MOL      0.002037
    160 H70         2.5450    0.0410    1.7910 hc        1 MOL      0.002037
    161 H71         2.4240    1.5120   -0.2320 hc        1 MOL      0.030928
    162 H72         2.0110    2.8590    0.8220 hc        1 MOL      0.030928
    163 N14         5.3520   -0.5650    2.4490 n         1 MOL     -0.036683
    164 C55         6.5460   -1.2610    3.0320 c3        1 MOL     -0.203928
    165 H73         7.0860   -0.5720    3.6810 h1        1 MOL      0.077140
    166 H74         6.2160   -2.1230    3.6130 h1        1 MOL      0.077140
    167 H75         7.2030   -1.5930    2.2290 h1        1 MOL      0.077140
    168 H76         4.9550   -0.8200    1.5510 hn        1 MOL      0.041168
    169 Ca1        -2.2470    0.0410   -0.1810 Ca        1 MOL      1.679958
    170 O24        -1.8090   -0.0170    2.8170 oh        1 MOL     -0.739120
    171 H77        -0.9890    0.3160    2.4590 ho        1 MOL      0.375386
    172 H78        -1.6850    0.0020    3.7690 ho        1 MOL      0.375386
    173 O25        -4.2340   -0.7330    1.4950 oh        1 MOL     -0.739120
    174 H79        -3.5160   -0.4960    2.0880 ho        1 MOL      0.375386
    175 H80        -5.0170   -0.6990    2.0440 ho        1 MOL      0.375386
@<TRIPOS>BOND
     1    1    2 1   
     2    1    4 1   
     3    1    5 1   
     4    1    6 1   
     5    2    3 2   
     6    2    7 1   
     7    7    8 1   
     8    7   15 1   
     9    8    9 1   
    10    8   11 1   
    11    8   16 1   
    12    9   10 2   
    13    9   19 1   
    14   11   12 1   
    15   11   17 1   
    16   11   18 1   
    17   12   13 1   
    18   12   14 1   
    19   19   20 1   
    20   19   24 1   
    21   20   21 1   
    22   20   23 1   
    23   20   25 1   
    24   21   22 2   
    25   21   29 1   
    26   23   26 1   
    27   23   27 1   
    28   23   28 1   
    29   29   30 1   
    30   29   37 1   
    31   30   31 1   
    32   30   33 1   
    33   30   38 1   
    34   31   32 2   
    35   31   41 1   
    36   33   34 1   
    37   33   39 1   
    38   33   40 1   
    39   34   35 1   
    40   34   36 1   
    41   41   42 1   
    42   41   45 1   
    43   42   43 1   
    44   42   46 1   
    45   42   47 1   
    46   43   44 2   
    47   43   48 1   
    48   48   49 1   
    49   48   56 1   
    50   49   50 1   
    51   49   52 1   
    52   49   57 1   
    53   50   51 2   
    54   50   62 1   
    55   52   53 1   
    56   52   58 1   
    57   52   59 1   
    58   53   54 1   
    59   53   55 2   
    60   54   60 1   
    61   54   61 1   
    62   62   63 1   
    63   62   66 1   
    64   63   64 1   
    65   63   67 1   
    66   63   68 1   
    67   64   65 2   
    68   64   69 1   
    69   69   70 1   
    70   69   76 1   
    71   70   71 1   
    72   70   73 1   
    73   70   77 1   
    74   71   72 2   
    75   71   83 1   
    76   73   74 1   
    77   73   75 1   
    78   73   78 1   
    79   74   80 1   
    80   74   81 1   
    81   74   82 1   
    82   75   79 1   
    83   83   84 1   
    84   83   91 1   
    85   84   85 1   
    86   84   87 1   
    87   84   92 1   
    88   85   86 2   
    89   85  102 1   
    90   87   88 1   
    91   87   89 1   
    92   87   93 1   
    93   88   90 1   
    94   88   94 1   
    95   88   95 1   
    96   89   96 1   
    97   89   97 1   
    98   89   98 1   
    99   90   99 1   
   100   90  100 1   
   101   90  101 1   
   102  102  103 1   
   103  102  110 1   
   104  103  104 1   
   105  103  106 1   
   106  103  111 1   
   107  104  105 2   
   108  104  114 1   
   109  106  107 1   
   110  106  112 1   
   111  106  113 1   
   112  107  108 1   
   113  107  109 1   
   114  114  115 1   
   115  114  125 1   
   116  115  116 1   
   117  115  118 1   
   118  115  126 1   
   119  116  117 2   
   120  116  134 1   
   121  118  119 1   
   122  118  127 1   
   123  118  128 1   
   124  119  120 ar  
   125  119  121 ar  
   126  120  122 ar  
   127  120  129 1   
   128  121  123 ar  
   129  121  130 1   
   130  122  124 ar  
   131  122  131 1   
   132  123  124 ar  
   133  123  132 1   
   134  124  133 1   
   135  134  135 1   
   136  134  140 1   
   137  135  136 1   
   138  135  138 1   
   139  135  141 1   
   140  136  137 2   
   141  136  148 1   
   142  138  139 1   
   143  138  142 1   
   144  138  143 1   
   145  139  140 1   
   146  139  144 1   
   147  139  145 1   
   148  140  146 1   
   149  140  147 1   
   150  148  149 1   
   151  148  157 1   
   152  149  150 1   
   153  149  152 1   
   154  149  158 1   
   155  150  151 2   
   156  150  163 1   
   157  152  153 1   
   158  152  159 1   
   159  152  160 1   
   160  153  154 1   
   161  153  161 1   
   162  153  162 1   
   163  154  155 1   
   164  154  156 1   
   165  163  164 1   
   166  163  168 1   
   167  164  165 1   
   168  164  166 1   
   169  164  167 1   
   170  170  171 1   
   171  170  172 1   
   172  173  174 1   
   173  173  175 1   
@<TRIPOS>SUBSTRUCTURE
     1 MOL         1 TEMP              0 ****  ****    0 ROOT
