@<TRIPOS>MOLECULE
MOL
  189   185     1     0     0
SMALL
resp


@<TRIPOS>ATOM
      1 C1         -0.0960    2.9040    6.2850 c3        1 MOL     -0.317778
      2 C2         -0.8500    2.3510    5.0820 c         1 MOL      0.719950
      3 O1         -0.6890    1.1760    4.7140 o         1 MOL     -0.613360
      4 H1          0.6200    2.1610    6.6380 hc        1 MOL      0.078030
      5 H2          0.4340    3.8110    5.9970 hc        1 MOL      0.078030
      6 H3         -0.8030    3.1330    7.0840 hc        1 MOL      0.078030
      7 N1         -1.5930    3.1670    4.4200 n         1 MOL     -0.541497
      8 C3         -2.3400    2.8240    3.1740 c3        1 MOL      0.280686
      9 C4         -2.4460    4.0710    2.3560 c         1 MOL      0.443126
     10 O2         -2.7060    5.1510    2.8700 o         1 MOL     -0.564907
     11 C5         -3.7210    2.2450    3.5440 c3        1 MOL     -0.398522
     12 C6         -4.4460    1.6280    2.3440 c         1 MOL      0.936660
     13 O3         -5.5970    1.1740    2.5350 o         1 MOL     -0.739993
     14 O4         -3.9470    1.6530    1.2330 o         1 MOL     -0.739993
     15 H4         -1.6720    4.1160    4.7500 hn        1 MOL      0.282474
     16 H5         -1.7060    2.0750    2.7180 h1        1 MOL     -0.003022
     17 H6         -4.3550    2.9940    4.0000 hc        1 MOL      0.088342
     18 H7         -3.6300    1.4610    4.2950 hc        1 MOL      0.088342
     19 N2         -2.1670    4.0060    1.0490 n         1 MOL     -0.213355
     20 C7         -2.2880    5.1440    0.1340 c3        1 MOL     -0.049620
     21 C8         -3.6450    5.0910   -0.6640 c         1 MOL      0.613407
     22 O5         -4.1370    6.1070   -1.1660 o         1 MOL     -0.576296
     23 C9         -1.0070    5.1970   -0.7450 c3        1 MOL      0.143625
     24 C10         0.1530    5.6440    0.1150 c3        1 MOL      0.029283
     25 C11        -1.1280    6.1790   -2.0380 c3        1 MOL     -0.318009
     26 C12         1.5300    5.1530   -0.4120 c3        1 MOL     -0.150584
     27 H8         -1.8360    3.1850    0.5700 hn        1 MOL      0.118700
     28 H9         -2.3610    6.0590    0.7230 h1        1 MOL      0.042612
     29 H10        -0.8450    4.2060   -1.1750 hc        1 MOL      0.084065
     30 H11         0.0280    5.2550    1.1260 hc        1 MOL     -0.011908
     31 H12         0.2660    6.7300    0.1930 hc        1 MOL     -0.011908
     32 H13        -1.8930    5.8060   -2.7120 hc        1 MOL      0.074669
     33 H14        -1.4140    7.1960   -1.7690 hc        1 MOL      0.074669
     34 H15        -0.2130    6.2150   -2.6250 hc        1 MOL      0.074669
     35 H16         1.7860    5.5070   -1.4050 hc        1 MOL      0.037133
     36 H17         2.3160    5.4330    0.3000 hc        1 MOL      0.037133
     37 H18         1.5200    4.0760   -0.5400 hc        1 MOL      0.037133
     38 N3         -4.3090    3.8960   -0.7390 n         1 MOL     -0.539234
     39 C13        -5.3390    3.6340   -1.8100 c3        1 MOL      0.021825
     40 C14        -6.5170    2.7730   -1.4520 c         1 MOL      0.478300
     41 O6         -7.5390    2.7830   -2.1810 o         1 MOL     -0.571729
     42 C15        -4.5900    3.0840   -3.0370 c3        1 MOL     -0.179442
     43 C16        -3.3640    2.2690   -2.7230 c         1 MOL      0.751135
     44 O7         -3.3610    1.3590   -1.8390 o         1 MOL     -0.713062
     45 O8         -2.3390    2.5470   -3.4090 o         1 MOL     -0.713062
     46 H19        -3.8690    3.1090   -0.2800 hn        1 MOL      0.333528
     47 H20        -5.7910    4.6000   -2.0190 h1        1 MOL      0.109981
     48 H21        -4.3040    3.9950   -3.5550 hc        1 MOL      0.052139
     49 H22        -5.2840    2.5890   -3.7220 hc        1 MOL      0.052139
     50 N4         -6.5350    2.1780   -0.2240 n         1 MOL     -0.223769
     51 C17        -7.7300    1.3910    0.1950 c3        1 MOL     -0.175394
     52 C18        -7.8990   -0.0160   -0.3650 c         1 MOL      0.432852
     53 O9         -8.9480   -0.6220   -0.1510 o         1 MOL     -0.590901
     54 H23        -5.6700    2.1170    0.2990 hn        1 MOL      0.104356
     55 H24        -8.6830    1.9020    0.0610 h1        1 MOL      0.117400
     56 H25        -7.7310    1.2550    1.2810 h1        1 MOL      0.117400
     57 N5         -6.9090   -0.5400   -1.0580 n         1 MOL     -0.029474
     58 C19        -7.1010   -1.8210   -1.7340 c3        1 MOL     -0.225384
     59 C20        -6.9460   -2.9930   -0.8660 c         1 MOL      0.475130
     60 O10        -7.1640   -4.1480   -1.1790 o         1 MOL     -0.536222
     61 C21        -6.1320   -1.8410   -2.9250 c3        1 MOL     -0.108884
     62 C22        -4.6420   -1.6850   -2.6070 c         1 MOL      0.705075
     63 O11        -4.2520   -1.4510   -1.4500 o         1 MOL     -0.686497
     64 O12        -3.8690   -1.8040   -3.5610 o         1 MOL     -0.686497
     65 H26        -6.1300    0.0710   -1.2510 hn        1 MOL      0.121595
     66 H27        -8.0870   -1.9410   -2.1740 h1        1 MOL      0.140761
     67 H28        -6.4620   -1.1220   -3.6810 hc        1 MOL      0.046640
     68 H29        -6.0860   -2.7640   -3.5150 hc        1 MOL      0.046640
     69 N6         -6.4720   -2.8180    0.3870 n         1 MOL     -0.135108
     70 C23        -6.4700   -3.8920    1.3970 c3        1 MOL     -0.119736
     71 C24        -5.1460   -4.7160    1.4510 c         1 MOL      0.520349
     72 O13        -5.1920   -5.9080    1.6460 o         1 MOL     -0.572054
     73 H30        -5.9250   -2.0280    0.6920 hn        1 MOL      0.118448
     74 H31        -7.3550   -4.5050    1.3230 h1        1 MOL      0.050366
     75 H32        -6.4710   -3.3120    2.3250 h1        1 MOL      0.050366
     76 N7         -4.1490   -4.1540    0.8640 n         1 MOL     -0.366730
     77 C25        -2.7990   -4.8150    0.7230 c3        1 MOL      0.093366
     78 C26        -1.6700   -3.7790    1.0140 c         1 MOL      0.184849
     79 O14        -1.7490   -2.5830    0.6960 o         1 MOL     -0.396454
     80 C27        -2.6880   -5.5200   -0.6600 c3        1 MOL     -0.207128
     81 C28        -2.8970   -4.5780   -1.8040 c3        1 MOL     -0.005485
     82 C29        -2.4920   -5.1780   -3.1860 c         1 MOL      0.575233
     83 N8         -2.8660   -4.4450   -4.2140 n         1 MOL     -0.736332
     84 O15        -1.9330   -6.2450   -3.3220 o         1 MOL     -0.575876
     85 H33        -4.2560   -3.2510    0.4410 hn        1 MOL      0.421301
     86 H34        -2.5960   -5.6410    1.3990 h1        1 MOL      0.019462
     87 H35        -3.3990   -6.3430   -0.7530 hc        1 MOL      0.084611
     88 H36        -1.6870   -5.9610   -0.7010 hc        1 MOL      0.084611
     89 H37        -2.3840   -3.6300   -1.6370 hc        1 MOL      0.039618
     90 H38        -3.9330   -4.2510   -1.7850 hc        1 MOL      0.039618
     91 H39        -3.1480   -3.5070   -3.9720 hn        1 MOL      0.335597
     92 H40        -2.3000   -4.5040   -5.0560 hn        1 MOL      0.335597
     93 N9         -0.5080   -4.2480    1.4980 n         1 MOL     -0.234196
     94 C30         0.7560   -3.5950    1.6400 c3        1 MOL     -0.218741
     95 C31         1.5490   -3.4830    0.4310 c         1 MOL      0.794621
     96 O16         2.1570   -4.4540    0.0450 o         1 MOL     -0.636473
     97 C32         1.5020   -4.2450    2.7660 c3        1 MOL      0.232555
     98 C33         2.9200   -3.5180    2.9470 c3        1 MOL     -0.301215
     99 C34         0.7140   -4.3380    4.1500 c3        1 MOL     -0.301215
    100 H41        -0.5080   -5.2570    1.5750 hn        1 MOL      0.283489
    101 H42         0.5650   -2.6050    2.0640 h1        1 MOL      0.153902
    102 H43         1.6510   -5.3010    2.5410 hc        1 MOL     -0.031460
    103 H44         3.5510   -3.5020    2.0570 hc        1 MOL      0.067359
    104 H45         2.7580   -2.4660    3.1540 hc        1 MOL      0.067359
    105 H46         3.4240   -4.0450    3.7600 hc        1 MOL      0.067359
    106 H47         0.4100   -3.3310    4.4120 hc        1 MOL      0.067359
    107 H48        -0.1080   -5.0510    4.0830 hc        1 MOL      0.067359
    108 H49         1.3330   -4.7370    4.9510 hc        1 MOL      0.067359
    109 N10         1.5410   -2.3440   -0.2240 n         1 MOL     -0.482064
    110 C35         2.6410   -1.9620   -1.1580 c3        1 MOL      0.286808
    111 C36         3.9880   -1.7370   -0.4170 c         1 MOL      0.055897
    112 O17         4.0840   -1.3550    0.7450 o         1 MOL     -0.005523
    113 C37         2.1200   -0.7460   -1.9230 c3        1 MOL     -0.094140
    114 C38         3.1200   -0.1860   -2.9720 c         1 MOL      0.501536
    115 N11         2.7950    0.9340   -3.5080 n         1 MOL     -0.578853
    116 O18         4.1730   -0.7680   -3.3200 o         1 MOL     -0.583013
    117 H50         0.9920   -1.5480    0.0790 hn        1 MOL      0.166915
    118 H51         2.8320   -2.7730   -1.8520 h1        1 MOL      0.037215
    119 H52         1.9720    0.0690   -1.2060 hc        1 MOL      0.046515
    120 H53         1.2390   -1.1610   -2.4040 hc        1 MOL      0.046515
    121 H54         1.9660    1.4290   -3.2260 hn        1 MOL      0.330521
    122 H55         3.4080    1.3580   -4.1960 hn        1 MOL      0.330521
    123 N12         5.1530   -2.0030   -1.0680 n         1 MOL     -0.401354
    124 C39         6.5330   -1.7720   -0.6260 c3        1 MOL      0.127188
    125 C40         6.6640   -0.3050   -0.2540 c         1 MOL      0.532417
    126 O19         7.3570    0.0840    0.6990 o         1 MOL     -0.519117
    127 C41         7.5480   -2.0720   -1.7360 c3        1 MOL     -0.120107
    128 C42         8.9440   -1.8690   -1.2320 ca        1 MOL     -0.054920
    129 C43         9.4660   -2.6700   -0.2060 ca        1 MOL     -0.100339
    130 C44         9.6900   -0.8360   -1.7820 ca        1 MOL     -0.100339
    131 C45        10.7470   -2.4580    0.3440 ca        1 MOL     -0.327049
    132 C46        11.0170   -0.5620   -1.2350 ca        1 MOL     -0.327049
    133 C47        11.5280   -1.3570   -0.1390 ca        1 MOL      0.417330
    134 O20        12.8150   -1.2160    0.1940 oh        1 MOL     -0.505977
    135 H56         5.0080   -2.3420   -2.0140 hn        1 MOL      0.260768
    136 H57         6.6430   -2.3720    0.2790 h1        1 MOL      0.053322
    137 H58         7.2740   -1.4050   -2.5580 hc        1 MOL      0.071864
    138 H59         7.4340   -3.0870   -2.1110 hc        1 MOL      0.071864
    139 H60         8.7690   -3.4660    0.0250 ha        1 MOL      0.127328
    140 H61         9.2830   -0.2640   -2.6090 ha        1 MOL      0.127328
    141 H62        11.0820   -3.2120    1.0470 ha        1 MOL      0.156944
    142 H63        11.6740    0.1850   -1.6300 ha        1 MOL      0.156944
    143 H64        13.2410   -0.6120   -0.4180 ho        1 MOL      0.353005
    144 N13         5.9600    0.6010   -0.9870 n         1 MOL     -0.281964
    145 C48         6.0880    2.0360   -0.6970 c3        1 MOL     -0.036570
    146 C49         5.3550    2.3470    0.6290 c         1 MOL      0.290588
    147 O21         5.6550    3.3680    1.2780 o         1 MOL     -0.512457
    148 C50         5.4620    2.8220   -1.8630 c3        1 MOL      0.105264
    149 C51         6.0690    2.5090   -3.2080 c3        1 MOL     -0.269189
    150 C52         5.3660    3.3440   -4.3020 c         1 MOL      0.717852
    151 O22         4.6390    2.7540   -5.1310 o         1 MOL     -0.712104
    152 O23         5.4470    4.5990   -4.2750 o         1 MOL     -0.712104
    153 H65         5.5720    0.2520   -1.8550 hn        1 MOL      0.247627
    154 H66         7.1600    2.2320   -0.5890 h1        1 MOL      0.093817
    155 H67         5.5750    3.8710   -1.6020 hc        1 MOL      0.012484
    156 H68         4.4050    2.5960   -1.8750 hc        1 MOL      0.012484
    157 H69         6.0330    1.4500   -3.4460 hc        1 MOL      0.022863
    158 H70         7.1420    2.7310   -3.1900 hc        1 MOL      0.022863
    159 N14         4.3340    1.5720    1.0790 n         1 MOL     -0.035031
    160 C53         3.6120    1.5560    2.3790 c3        1 MOL     -0.114725
    161 C54         4.4910    0.8640    3.4930 c         1 MOL      0.523310
    162 O24         4.6190    1.3800    4.5980 o         1 MOL     -0.565619
    163 C55         2.1630    1.0400    2.1560 c3        1 MOL      0.084847
    164 C56         1.4030    1.8390    1.1460 c3        1 MOL     -0.010528
    165 C57         0.0970    1.1090    0.6710 c         1 MOL      0.720429
    166 O25        -0.7840    1.7880    0.1630 o         1 MOL     -0.715778
    167 O26        -0.0760   -0.1270    0.8050 o         1 MOL     -0.715778
    168 H71         4.2190    0.7550    0.4990 hn        1 MOL      0.038549
    169 H72         3.5490    2.6220    2.6170 h1        1 MOL      0.081384
    170 H73         1.6340    1.0930    3.1020 hc        1 MOL     -0.032496
    171 H74         2.1820    0.0020    1.8320 hc        1 MOL     -0.032496
    172 H75         1.9820    2.0840    0.2470 hc        1 MOL      0.002664
    173 H76         1.1560    2.8210    1.5460 hc        1 MOL      0.002664
    174 N15         5.0600   -0.3320    3.1440 n         1 MOL     -0.080877
    175 C58         5.8020   -1.2940    3.9790 c3        1 MOL     -0.228931
    176 H77         5.5180   -2.3090    3.7030 h1        1 MOL      0.086642
    177 H78         6.8730   -1.1610    3.8220 h1        1 MOL      0.086642
    178 H79         5.5640   -1.1230    5.0290 h1        1 MOL      0.086642
    179 H80         4.7770   -0.6130    2.2160 hn        1 MOL     -0.083353
    180 Ca1        -2.6400   -0.1510    0.0180 Ca        1 MOL      1.684974
    181 O27        -1.6610   -0.4670    2.8890 oh        1 MOL     -0.838828
    182 H81        -1.3100   -0.1150    3.7040 ho        1 MOL      0.395287
    183 H82        -0.9050   -0.5350    2.3130 ho        1 MOL      0.395287
    184 O28        -1.5380   -0.7360   -2.2310 oh        1 MOL     -0.838828
    185 H83        -1.3170    0.1370   -2.5550 ho        1 MOL      0.395287
    186 H84        -2.1840   -1.0630   -2.8570 ho        1 MOL      0.395287
    187 O29        -4.3960   -1.1770    1.7570 oh        1 MOL     -0.838828
    188 H85        -4.2960   -1.5630    2.6310 ho        1 MOL      0.395287
    189 H86        -4.9600   -0.4130    1.8910 ho        1 MOL      0.395287
@<TRIPOS>BOND
     1    1    2 1   
     2    1    4 1   
     3    1    5 1   
     4    1    6 1   
     5    2    3 2   
     6    2    7 1   
     7    7    8 1   
     8    7   15 1   
     9    8    9 1   
    10    8   11 1   
    11    8   16 1   
    12    9   10 2   
    13    9   19 1   
    14   11   12 1   
    15   11   17 1   
    16   11   18 1   
    17   12   13 1   
    18   12   14 1   
    19   19   20 1   
    20   19   27 1   
    21   20   21 1   
    22   20   23 1   
    23   20   28 1   
    24   21   22 2   
    25   21   38 1   
    26   23   24 1   
    27   23   25 1   
    28   23   29 1   
    29   24   26 1   
    30   24   30 1   
    31   24   31 1   
    32   25   32 1   
    33   25   33 1   
    34   25   34 1   
    35   26   35 1   
    36   26   36 1   
    37   26   37 1   
    38   38   39 1   
    39   38   46 1   
    40   39   40 1   
    41   39   42 1   
    42   39   47 1   
    43   40   41 2   
    44   40   50 1   
    45   42   43 1   
    46   42   48 1   
    47   42   49 1   
    48   43   44 1   
    49   43   45 1   
    50   50   51 1   
    51   50   54 1   
    52   51   52 1   
    53   51   55 1   
    54   51   56 1   
    55   52   53 2   
    56   52   57 1   
    57   57   58 1   
    58   57   65 1   
    59   58   59 1   
    60   58   61 1   
    61   58   66 1   
    62   59   60 2   
    63   59   69 1   
    64   61   62 1   
    65   61   67 1   
    66   61   68 1   
    67   62   63 1   
    68   62   64 1   
    69   69   70 1   
    70   69   73 1   
    71   70   71 1   
    72   70   74 1   
    73   70   75 1   
    74   71   72 2   
    75   71   76 1   
    76   76   77 1   
    77   76   85 1   
    78   77   78 1   
    79   77   80 1   
    80   77   86 1   
    81   78   79 2   
    82   78   93 1   
    83   80   81 1   
    84   80   87 1   
    85   80   88 1   
    86   81   82 1   
    87   81   89 1   
    88   81   90 1   
    89   82   83 1   
    90   82   84 2   
    91   83   91 1   
    92   83   92 1   
    93   93   94 1   
    94   93  100 1   
    95   94   95 1   
    96   94   97 1   
    97   94  101 1   
    98   95   96 2   
    99   95  109 1   
   100   97   98 1   
   101   97   99 1   
   102   97  102 1   
   103   98  103 1   
   104   98  104 1   
   105   98  105 1   
   106   99  106 1   
   107   99  107 1   
   108   99  108 1   
   109  109  110 1   
   110  109  117 1   
   111  110  111 1   
   112  110  113 1   
   113  110  118 1   
   114  111  112 2   
   115  111  123 1   
   116  113  114 1   
   117  113  119 1   
   118  113  120 1   
   119  114  115 1   
   120  114  116 2   
   121  115  121 1   
   122  115  122 1   
   123  123  124 1   
   124  123  135 1   
   125  124  125 1   
   126  124  127 1   
   127  124  136 1   
   128  125  126 2   
   129  125  144 1   
   130  127  128 1   
   131  127  137 1   
   132  127  138 1   
   133  128  129 ar  
   134  128  130 ar  
   135  129  131 ar  
   136  129  139 1   
   137  130  132 ar  
   138  130  140 1   
   139  131  133 ar  
   140  131  141 1   
   141  132  133 ar  
   142  132  142 1   
   143  133  134 1   
   144  134  143 1   
   145  144  145 1   
   146  144  153 1   
   147  145  146 1   
   148  145  148 1   
   149  145  154 1   
   150  146  147 2   
   151  146  159 1   
   152  148  149 1   
   153  148  155 1   
   154  148  156 1   
   155  149  150 1   
   156  149  157 1   
   157  149  158 1   
   158  150  151 1   
   159  150  152 1   
   160  159  160 1   
   161  159  168 1   
   162  160  161 1   
   163  160  163 1   
   164  160  169 1   
   165  161  162 2   
   166  161  174 1   
   167  163  164 1   
   168  163  170 1   
   169  163  171 1   
   170  164  165 1   
   171  164  172 1   
   172  164  173 1   
   173  165  166 1   
   174  165  167 1   
   175  174  175 1   
   176  174  179 1   
   177  175  176 1   
   178  175  177 1   
   179  175  178 1   
   180  181  182 1   
   181  181  183 1   
   182  184  185 1   
   183  184  186 1   
   184  187  188 1   
   185  187  189 1   
@<TRIPOS>SUBSTRUCTURE
     1 MOL         1 TEMP              0 ****  ****    0 ROOT
