@<TRIPOS>MOLECULE
MOL
  189   185     1     0     0
SMALL
resp


@<TRIPOS>ATOM
      1 C1         -0.5140    2.8930   -5.1530 c3        1 MOL     -0.175274
      2 C2          0.2220    2.6050   -3.8330 c         1 MOL      0.665633
      3 O1         -0.2170    3.0120   -2.7500 o         1 MOL     -0.579746
      4 H1         -0.0470    2.3270   -5.9600 hc        1 MOL      0.050275
      5 H2         -1.5580    2.5970   -5.0600 hc        1 MOL      0.050275
      6 H3         -0.4560    3.9580   -5.3770 hc        1 MOL      0.050275
      7 N1          1.3660    1.8090   -3.7400 n         1 MOL     -0.569394
      8 C3          1.9470    1.4680   -2.4110 c3        1 MOL      0.035169
      9 C4          2.6380    2.7630   -1.8950 c         1 MOL      0.320087
     10 O2          3.5980    3.2590   -2.5200 o         1 MOL     -0.513239
     11 C5          2.9760    0.3540   -2.6170 c3        1 MOL     -0.220871
     12 C6          3.7750    0.0370   -1.3120 c         1 MOL      0.778713
     13 O3          3.1340    0.0090   -0.2400 o         1 MOL     -0.714277
     14 O4          4.9670   -0.3580   -1.4160 o         1 MOL     -0.714277
     15 H4          1.7410    1.5250   -4.6340 hn        1 MOL      0.316914
     16 H5          1.2300    1.1730   -1.6470 h1        1 MOL      0.104420
     17 H6          3.7600    0.6340   -3.3240 hc        1 MOL      0.056584
     18 H7          2.5560   -0.5890   -2.9680 hc        1 MOL      0.056584
     19 N2          2.1920    3.2890   -0.7190 n         1 MOL     -0.001118
     20 C7          2.6580    4.6170   -0.1820 c3        1 MOL      0.065024
     21 C8          3.5190    4.5570    0.9950 c         1 MOL      0.373291
     22 O5          4.4600    5.3680    1.0750 o         1 MOL     -0.556903
     23 C9          1.7490    5.8130   -0.2270 c3        1 MOL      0.225434
     24 C10         0.8610    6.2150   -1.4590 c3        1 MOL     -0.094638
     25 C11         1.5670    6.1810   -2.8490 c3        1 MOL     -0.076463
     26 C12         2.7790    7.1420   -2.7470 c3        1 MOL      0.122552
     27 N3          3.4440    7.3450   -4.0980 n4        1 MOL     -0.343500
     28 H8          1.5750    2.7150   -0.1760 hn        1 MOL      0.142712
     29 H9          3.3860    4.8580   -0.9650 h1        1 MOL      0.017579
     30 H10         2.3480    6.6860    0.0350 hc        1 MOL     -0.068715
     31 H11         1.0520    5.6030    0.5940 hc        1 MOL     -0.068715
     32 H12         0.4730    7.2230   -1.3000 hc        1 MOL      0.044205
     33 H13         0.0800    5.4580   -1.4740 hc        1 MOL      0.044205
     34 H14         0.8800    6.5040   -3.6450 hc        1 MOL      0.023186
     35 H15         1.8660    5.1890   -3.1970 hc        1 MOL      0.023186
     36 H16         3.3770    6.7170   -1.9410 hx        1 MOL      0.049207
     37 H17         2.4310    8.1310   -2.4410 hx        1 MOL      0.049207
     38 H18         2.7770    7.7270   -4.7490 hn        1 MOL      0.318470
     39 H19         4.1240    8.0860   -4.0370 hn        1 MOL      0.318470
     40 H20         3.7290    6.4440   -4.4600 hn        1 MOL      0.318470
     41 N4          3.4210    3.6350    1.9120 n         1 MOL     -0.290940
     42 C13         4.4100    3.3760    3.0510 c3        1 MOL      0.004589
     43 C14         5.7070    2.5940    2.5460 c         1 MOL      0.385329
     44 O6          6.8390    2.7280    3.0350 o         1 MOL     -0.527179
     45 C15         3.7370    2.6500    4.2420 c3        1 MOL     -0.348303
     46 C16         2.8230    1.4740    3.8880 c         1 MOL      0.785535
     47 O7          2.8430    1.0130    2.7450 o         1 MOL     -0.738902
     48 O8          2.0060    0.9810    4.7200 o         1 MOL     -0.738902
     49 H21         2.7460    2.8920    1.8420 hn        1 MOL      0.251710
     50 H22         4.8000    4.3610    3.3290 h1        1 MOL      0.120129
     51 H23         3.1280    3.3650    4.8060 hc        1 MOL      0.105090
     52 H24         4.4240    2.2940    5.0200 hc        1 MOL      0.105090
     53 N5          5.6210    1.9590    1.3450 n         1 MOL     -0.068118
     54 C17         6.7950    1.5090    0.5720 c3        1 MOL     -0.189471
     55 C18         7.2730    0.0800    0.9980 c         1 MOL      0.543749
     56 O9          8.4290   -0.2580    0.6470 o         1 MOL     -0.575298
     57 H25         4.7270    1.9190    0.8920 hn        1 MOL      0.140291
     58 H26         7.6370    2.2000    0.6120 h1        1 MOL      0.102275
     59 H27         6.4610    1.5580   -0.4550 h1        1 MOL      0.102275
     60 N6          6.4310   -0.6700    1.6720 n         1 MOL     -0.368272
     61 C19         6.6070   -2.1520    1.9910 c3        1 MOL      0.057259
     62 C20         6.5720   -3.1340    0.8490 c         1 MOL      0.336282
     63 O10         7.0350   -4.2770    0.9760 o         1 MOL     -0.537638
     64 C21         5.5150   -2.6560    2.9530 c3        1 MOL     -0.343013
     65 C22         4.0860   -2.3350    2.4830 c         1 MOL      0.608560
     66 O11         3.6740   -2.6620    1.3200 o         1 MOL     -0.622948
     67 O12         3.2880   -1.7370    3.2830 o         1 MOL     -0.622948
     68 H28         5.5150   -0.3120    1.9070 hn        1 MOL      0.271389
     69 H29         7.5700   -2.3440    2.4580 h1        1 MOL      0.106327
     70 H30         5.6780   -2.1630    3.9060 hc        1 MOL      0.117203
     71 H31         5.5170   -3.7440    2.9610 hc        1 MOL      0.117203
     72 N7          6.1620   -2.6600   -0.3140 n         1 MOL     -0.071335
     73 C23         6.1250   -3.4910   -1.5320 c3        1 MOL     -0.251939
     74 C24         4.8790   -4.2880   -1.8160 c         1 MOL      0.566704
     75 O13         4.9410   -5.2690   -2.5760 o         1 MOL     -0.570482
     76 H32         5.9370   -1.6800   -0.3940 hn        1 MOL      0.251050
     77 H33         6.9440   -4.1930   -1.4200 h1        1 MOL      0.107927
     78 H34         6.3970   -2.8160   -2.3440 h1        1 MOL      0.107927
     79 N8          3.7810   -3.8840   -1.2140 n         1 MOL     -0.152140
     80 C25         2.4940   -4.5220   -1.3150 c3        1 MOL     -0.331553
     81 C26         1.3530   -3.5790   -1.2540 c         1 MOL      0.748886
     82 O14         1.2720   -2.6240   -0.4410 o         1 MOL     -0.596580
     83 C27         2.3360   -5.5670   -0.2100 c3        1 MOL      0.457971
     84 C28         3.2790   -6.7610   -0.2640 c3        1 MOL     -0.503254
     85 O15         2.5330   -4.9530    1.0880 oh        1 MOL     -0.612205
     86 H35         3.7970   -3.0650   -0.6270 hn        1 MOL      0.131372
     87 H36         2.4910   -5.0280   -2.2840 h1        1 MOL      0.099586
     88 H37         1.2930   -5.8690   -0.2910 h1        1 MOL     -0.030595
     89 H38         3.0230   -4.1640    0.8440 ho        1 MOL      0.417166
     90 H39         2.9140   -7.5890    0.3390 hc        1 MOL      0.135407
     91 H40         3.4400   -7.1750   -1.2680 hc        1 MOL      0.135407
     92 H41         4.2630   -6.4330    0.0620 hc        1 MOL      0.135407
     93 N9          0.3010   -3.7200   -2.0730 n         1 MOL     -0.604573
     94 C29        -0.8340   -2.8110   -2.1820 c3        1 MOL      0.070107
     95 C30        -2.1210   -3.2920   -1.4290 c         1 MOL      0.577994
     96 O16        -2.5220   -4.4180   -1.7230 o         1 MOL     -0.569313
     97 C31        -1.1990   -2.5600   -3.6690 c3        1 MOL      0.059179
     98 C32         0.0560   -1.8150   -4.3240 c3        1 MOL      0.177708
     99 C33        -2.5180   -1.7850   -3.9510 c3        1 MOL     -0.333038
    100 C34         0.0250   -1.7540   -5.8790 c3        1 MOL     -0.234349
    101 H42         0.3680   -4.4430   -2.7690 hn        1 MOL      0.310414
    102 H43        -0.5960   -1.9050   -1.6270 h1        1 MOL      0.010138
    103 H44        -1.3800   -3.5450   -4.0910 hc        1 MOL      0.038693
    104 H45         0.9880   -2.3040   -4.0360 hc        1 MOL     -0.013876
    105 H46         0.0590   -0.7860   -3.9490 hc        1 MOL     -0.013876
    106 H47        -3.3430   -2.3140   -3.4740 hc        1 MOL      0.066184
    107 H48        -2.6090   -0.7870   -3.5340 hc        1 MOL      0.066184
    108 H49        -2.7290   -1.6010   -5.0100 hc        1 MOL      0.066184
    109 H50         0.1020   -2.7750   -6.2650 hc        1 MOL      0.045850
    110 H51        -0.8650   -1.2210   -6.2070 hc        1 MOL      0.045850
    111 H52         0.8850   -1.1990   -6.2680 hc        1 MOL      0.045850
    112 N10        -2.7040   -2.4640   -0.5600 n         1 MOL     -0.221318
    113 C35        -3.9600   -2.7260    0.1970 c3        1 MOL     -0.086905
    114 C36        -5.3210   -2.2830   -0.4320 c         1 MOL      0.419269
    115 O17        -5.2510   -1.4880   -1.3670 o         1 MOL     -0.344824
    116 C37        -3.7610   -2.2320    1.6480 c3        1 MOL      0.142611
    117 C38        -2.6860   -3.0490    2.4060 c3        1 MOL     -0.399239
    118 O18        -3.5890   -0.8300    1.5600 oh        1 MOL     -0.407856
    119 H53        -2.3190   -1.5400   -0.3690 hn        1 MOL      0.273289
    120 H54        -4.0760   -3.8000    0.3310 h1        1 MOL      0.060335
    121 H55        -4.6860   -2.3060    2.2180 h1        1 MOL     -0.003606
    122 H56        -2.7510   -0.7800    2.0350 ho        1 MOL      0.296327
    123 H57        -1.6880   -2.9300    1.9800 hc        1 MOL      0.120568
    124 H58        -2.6060   -2.7210    3.4440 hc        1 MOL      0.120568
    125 H59        -3.1030   -4.0590    2.4730 hc        1 MOL      0.120568
    126 N11        -6.5060   -2.6970    0.1330 n         1 MOL     -0.299217
    127 C39        -7.8080   -2.1960   -0.2190 c3        1 MOL     -0.191115
    128 C40        -7.8470   -0.5970   -0.0460 c         1 MOL      0.470165
    129 O19        -8.3280    0.0640   -0.9540 o         1 MOL     -0.510435
    130 C41        -8.9170   -2.7800    0.5680 c3        1 MOL      0.329832
    131 C42        -9.1160   -4.2540    0.3430 c3        1 MOL     -0.369497
    132 O20        -8.6830   -2.5500    1.9580 oh        1 MOL     -0.678447
    133 H60        -6.5470   -3.4140    0.8460 hn        1 MOL      0.279857
    134 H61        -7.9790   -2.3590   -1.2850 h1        1 MOL      0.133001
    135 H62        -9.8350   -2.3000    0.2310 h1        1 MOL      0.049185
    136 H63        -9.2110   -3.2610    2.3440 ho        1 MOL      0.422984
    137 H64        -8.1990   -4.7530    0.6580 hc        1 MOL      0.105160
    138 H65       -10.0160   -4.5270    0.8810 hc        1 MOL      0.105160
    139 H66        -9.3330   -4.4090   -0.7170 hc        1 MOL      0.105160
    140 N12        -7.2830   -0.0560    1.0050 n         1 MOL     -0.294044
    141 C43        -7.1140    1.4150    1.2240 c3        1 MOL     -0.089433
    142 C44        -6.1390    2.1150    0.2840 c         1 MOL      0.409689
    143 O21        -6.3650    3.2390   -0.0840 o         1 MOL     -0.512993
    144 C45        -6.8630    1.6480    2.6960 c3        1 MOL     -0.095465
    145 C46        -6.8330    3.1630    3.0820 c3        1 MOL      0.006217
    146 C47        -6.8370    3.3540    4.6050 c3        1 MOL     -0.105985
    147 C48        -5.5870    2.7270    5.2700 c3        1 MOL      0.164038
    148 N13        -5.7560    2.8840    6.7570 n4        1 MOL     -0.594531
    149 H67        -6.9290   -0.7340    1.6700 hn        1 MOL      0.291754
    150 H68        -8.0530    1.9270    1.0110 h1        1 MOL      0.136076
    151 H69        -5.9620    1.1200    3.0180 hc        1 MOL      0.039417
    152 H70        -7.6470    1.1290    3.2550 hc        1 MOL      0.039417
    153 H71        -7.6140    3.7290    2.5770 hc        1 MOL      0.053216
    154 H72        -5.9840    3.6260    2.5960 hc        1 MOL      0.053216
    155 H73        -7.7790    2.8910    4.9260 hc        1 MOL      0.045406
    156 H74        -6.8240    4.3790    4.9630 hc        1 MOL      0.045406
    157 H75        -4.7050    3.2640    4.9340 hx        1 MOL      0.057922
    158 H76        -5.4770    1.6740    5.0060 hx        1 MOL      0.057922
    159 H77        -5.0450    2.3820    7.2670 hn        1 MOL      0.394880
    160 H78        -5.5750    3.8700    6.8570 hn        1 MOL      0.394880
    161 H79        -6.6900    2.5500    6.9640 hn        1 MOL      0.394880
    162 N14        -5.1180    1.4120   -0.1800 n         1 MOL      0.005488
    163 C49        -4.1610    1.8240   -1.1850 c3        1 MOL     -0.240243
    164 C50        -4.7300    1.8240   -2.6000 c         1 MOL      0.527086
    165 O22        -4.3680    2.7840   -3.3000 o         1 MOL     -0.577096
    166 C51        -2.7550    1.1250   -1.0420 c3        1 MOL      0.189883
    167 C52        -2.0450    1.5900    0.2560 c3        1 MOL     -0.372710
    168 C53        -0.7530    0.7970    0.4890 c         1 MOL      0.830370
    169 O23        -0.7230   -0.4510    0.7710 o         1 MOL     -0.762318
    170 O24         0.3080    1.3900    0.5760 o         1 MOL     -0.762318
    171 H80        -5.0430    0.4580    0.1590 hn        1 MOL     -0.032800
    172 H81        -3.9490    2.8700   -0.9700 h1        1 MOL      0.128233
    173 H82        -2.0820    1.4110   -1.8430 hc        1 MOL      0.018588
    174 H83        -3.0110    0.0700   -1.1520 hc        1 MOL      0.018588
    175 H84        -2.5600    1.3790    1.1900 hc        1 MOL      0.079021
    176 H85        -1.9790    2.6650    0.0660 hc        1 MOL      0.079021
    177 N15        -5.5800    0.8970   -3.0550 n         1 MOL     -0.127908
    178 C54        -6.2530    1.0240   -4.4260 c3        1 MOL     -0.344336
    179 H86        -5.7030    0.4330   -5.1560 h1        1 MOL      0.134701
    180 H87        -7.2790    0.6610   -4.3630 h1        1 MOL      0.134701
    181 H88        -6.2560    2.0700   -4.7340 h1        1 MOL      0.134701
    182 H89        -5.7740    0.0900   -2.4800 hn        1 MOL      0.167498
    183 Ca1         1.6280   -0.9180    1.5540 Ca        1 MOL      1.681762
    184 O25        -0.0220   -0.4590    3.6980 oh        1 MOL     -0.757928
    185 H90         0.6640   -0.0740    4.2450 ho        1 MOL      0.368774
    186 H91        -0.7820    0.1100    3.8130 ho        1 MOL      0.368774
    187 O26         0.7750   -3.2920    2.4090 oh        1 MOL     -0.757928
    188 H92         0.9080   -3.9740    1.7580 ho        1 MOL      0.368774
    189 H93         0.7910   -3.7560    3.2540 ho        1 MOL      0.368774
@<TRIPOS>BOND
     1    1    2 1   
     2    1    4 1   
     3    1    5 1   
     4    1    6 1   
     5    2    3 2   
     6    2    7 1   
     7    7    8 1   
     8    7   15 1   
     9    8    9 1   
    10    8   11 1   
    11    8   16 1   
    12    9   10 2   
    13    9   19 1   
    14   11   12 1   
    15   11   17 1   
    16   11   18 1   
    17   12   13 1   
    18   12   14 1   
    19   19   20 1   
    20   19   28 1   
    21   20   21 1   
    22   20   23 1   
    23   20   29 1   
    24   21   22 2   
    25   21   41 1   
    26   23   24 1   
    27   23   30 1   
    28   23   31 1   
    29   24   25 1   
    30   24   32 1   
    31   24   33 1   
    32   25   26 1   
    33   25   34 1   
    34   25   35 1   
    35   26   27 1   
    36   26   36 1   
    37   26   37 1   
    38   27   38 1   
    39   27   39 1   
    40   27   40 1   
    41   41   42 1   
    42   41   49 1   
    43   42   43 1   
    44   42   45 1   
    45   42   50 1   
    46   43   44 2   
    47   43   53 1   
    48   45   46 1   
    49   45   51 1   
    50   45   52 1   
    51   46   47 1   
    52   46   48 1   
    53   53   54 1   
    54   53   57 1   
    55   54   55 1   
    56   54   58 1   
    57   54   59 1   
    58   55   56 2   
    59   55   60 1   
    60   60   61 1   
    61   60   68 1   
    62   61   62 1   
    63   61   64 1   
    64   61   69 1   
    65   62   63 2   
    66   62   72 1   
    67   64   65 1   
    68   64   70 1   
    69   64   71 1   
    70   65   66 1   
    71   65   67 1   
    72   72   73 1   
    73   72   76 1   
    74   73   74 1   
    75   73   77 1   
    76   73   78 1   
    77   74   75 2   
    78   74   79 1   
    79   79   80 1   
    80   79   86 1   
    81   80   81 1   
    82   80   83 1   
    83   80   87 1   
    84   81   82 2   
    85   81   93 1   
    86   83   84 1   
    87   83   85 1   
    88   83   88 1   
    89   84   90 1   
    90   84   91 1   
    91   84   92 1   
    92   85   89 1   
    93   93   94 1   
    94   93  101 1   
    95   94   95 1   
    96   94   97 1   
    97   94  102 1   
    98   95   96 2   
    99   95  112 1   
   100   97   98 1   
   101   97   99 1   
   102   97  103 1   
   103   98  100 1   
   104   98  104 1   
   105   98  105 1   
   106   99  106 1   
   107   99  107 1   
   108   99  108 1   
   109  100  109 1   
   110  100  110 1   
   111  100  111 1   
   112  112  113 1   
   113  112  119 1   
   114  113  114 1   
   115  113  116 1   
   116  113  120 1   
   117  114  115 2   
   118  114  126 1   
   119  116  117 1   
   120  116  118 1   
   121  116  121 1   
   122  117  123 1   
   123  117  124 1   
   124  117  125 1   
   125  118  122 1   
   126  126  127 1   
   127  126  133 1   
   128  127  128 1   
   129  127  130 1   
   130  127  134 1   
   131  128  129 2   
   132  128  140 1   
   133  130  131 1   
   134  130  132 1   
   135  130  135 1   
   136  131  137 1   
   137  131  138 1   
   138  131  139 1   
   139  132  136 1   
   140  140  141 1   
   141  140  149 1   
   142  141  142 1   
   143  141  144 1   
   144  141  150 1   
   145  142  143 2   
   146  142  162 1   
   147  144  145 1   
   148  144  151 1   
   149  144  152 1   
   150  145  146 1   
   151  145  153 1   
   152  145  154 1   
   153  146  147 1   
   154  146  155 1   
   155  146  156 1   
   156  147  148 1   
   157  147  157 1   
   158  147  158 1   
   159  148  159 1   
   160  148  160 1   
   161  148  161 1   
   162  162  163 1   
   163  162  171 1   
   164  163  164 1   
   165  163  166 1   
   166  163  172 1   
   167  164  165 2   
   168  164  177 1   
   169  166  167 1   
   170  166  173 1   
   171  166  174 1   
   172  167  168 1   
   173  167  175 1   
   174  167  176 1   
   175  168  169 1   
   176  168  170 1   
   177  177  178 1   
   178  177  182 1   
   179  178  179 1   
   180  178  180 1   
   181  178  181 1   
   182  184  185 1   
   183  184  186 1   
   184  187  188 1   
   185  187  189 1   
@<TRIPOS>SUBSTRUCTURE
     1 MOL         1 TEMP              0 ****  ****    0 ROOT
