@<TRIPOS>MOLECULE
MOL
  179   176     1     0     0
SMALL
resp


@<TRIPOS>ATOM
      1 C1          2.3680    3.5170    5.4080 c3        1 MOL     -0.300351
      2 C2          1.7780    2.7970    4.1840 c         1 MOL      0.665146
      3 O1          2.5420    2.3530    3.3230 o         1 MOL     -0.596481
      4 H1          1.8710    4.4780    5.5380 hc        1 MOL      0.079070
      5 H2          2.2160    2.9060    6.2980 hc        1 MOL      0.079070
      6 H3          3.4360    3.6790    5.2560 hc        1 MOL      0.079070
      7 N1          0.4600    2.7830    3.9840 n         1 MOL     -0.532887
      8 C3         -0.1900    2.2780    2.7610 c3        1 MOL      0.155923
      9 C4         -0.2060    3.4450    1.7170 c         1 MOL      0.475240
     10 O2         -1.0810    4.2150    1.8090 o         1 MOL     -0.485230
     11 C5         -1.6390    1.8850    3.1450 c3        1 MOL     -0.344894
     12 C6         -2.4990    1.5390    1.9050 c         1 MOL      0.839408
     13 O3         -3.7010    1.4190    2.0670 o         1 MOL     -0.719315
     14 O4         -1.9880    1.4770    0.7460 o         1 MOL     -0.719315
     15 H4         -0.1420    2.8330    4.7830 hn        1 MOL      0.299347
     16 H5          0.3100    1.4560    2.2600 h1        1 MOL     -0.058194
     17 H6         -2.2130    2.7100    3.5720 hc        1 MOL      0.092561
     18 H7         -1.6610    1.0040    3.7790 hc        1 MOL      0.092561
     19 N2          0.8000    3.5810    0.7970 n         1 MOL     -0.319074
     20 C7          1.2000    4.9030    0.2170 c3        1 MOL     -0.070186
     21 C8          0.2420    5.3980   -0.8530 c         1 MOL      0.389188
     22 O5          0.4810    6.5380   -1.2830 o         1 MOL     -0.570378
     23 C9          2.6490    4.7740   -0.2390 c3        1 MOL     -0.029671
     24 C10         3.4890    6.0530   -0.3950 c3        1 MOL     -0.104245
     25 C11         4.9460    5.6730   -0.8470 c3        1 MOL     -0.121911
     26 C12         5.9500    6.8770   -0.9300 c3        1 MOL     -0.124371
     27 N3          6.2780    7.3960    0.4200 n4        1 MOL     -0.247966
     28 H8          1.4420    2.8060    0.6950 hn        1 MOL      0.340808
     29 H9          1.2190    5.6320    1.0220 h1        1 MOL      0.109812
     30 H10         2.7750    4.1420   -1.1140 hc        1 MOL      0.052401
     31 H11         3.0590    4.1960    0.5830 hc        1 MOL      0.052401
     32 H12         3.3730    6.6750    0.4970 hc        1 MOL      0.064958
     33 H13         3.0540    6.7170   -1.1390 hc        1 MOL      0.064958
     34 H14         4.8430    5.1800   -1.8200 hc        1 MOL      0.103085
     35 H15         5.3970    4.8540   -0.2770 hc        1 MOL      0.103085
     36 H16         5.5600    7.7130   -1.5110 hx        1 MOL      0.138825
     37 H17         6.8820    6.5630   -1.4080 hx        1 MOL      0.138825
     38 H18         5.5310    7.7270    1.0140 hn        1 MOL      0.299615
     39 H19         6.8090    6.7460    0.9870 hn        1 MOL      0.299615
     40 H20         6.9460    8.1430    0.3180 hn        1 MOL      0.299615
     41 N4         -0.7410    4.6280   -1.2510 n         1 MOL     -0.039706
     42 C13        -1.7960    5.0480   -2.0960 c3        1 MOL      0.120020
     43 C14        -3.1710    4.9970   -1.3100 c         1 MOL      0.396673
     44 O6         -4.0840    5.6360   -1.8640 o         1 MOL     -0.535388
     45 C15        -1.7540    4.3380   -3.4800 c3        1 MOL     -0.267241
     46 C16        -1.9760    2.8070   -3.5670 c         1 MOL      0.869248
     47 O7         -2.1910    2.1680   -2.4970 o         1 MOL     -0.746630
     48 O8         -1.8180    2.2340   -4.6650 o         1 MOL     -0.746630
     49 H21        -0.6920    3.6710   -0.9260 hn        1 MOL      0.016628
     50 H22        -1.6220    6.1060   -2.2840 h1        1 MOL      0.056608
     51 H23        -0.7580    4.5020   -3.8850 hc        1 MOL      0.060971
     52 H24        -2.5810    4.7650   -4.0270 hc        1 MOL      0.060971
     53 N5         -3.2790    4.3970   -0.1400 n         1 MOL     -0.146128
     54 C17        -4.5770    4.5460    0.5980 c3        1 MOL     -0.236585
     55 C18        -5.6720    3.4920    0.2700 c         1 MOL      0.488150
     56 O9         -6.8610    3.6220    0.5300 o         1 MOL     -0.555481
     57 H25        -2.4950    3.9080    0.2510 hn        1 MOL      0.099637
     58 H26        -4.9980    5.5500    0.4820 h1        1 MOL      0.138229
     59 H27        -4.3500    4.4060    1.6620 h1        1 MOL      0.138229
     60 N6         -5.2870    2.4520   -0.4680 n         1 MOL     -0.037291
     61 C19        -6.2620    1.5470   -1.0930 c3        1 MOL     -0.185430
     62 C20        -6.8720    0.4680   -0.1930 c         1 MOL      0.472628
     63 O10        -7.7360   -0.3190   -0.5870 o         1 MOL     -0.532927
     64 C21        -5.6520    1.0170   -2.4250 c3        1 MOL      0.007110
     65 C22        -4.7470   -0.2060   -2.3910 c         1 MOL      0.484317
     66 N7         -4.9250   -1.0710   -3.2640 n         1 MOL     -0.602473
     67 O11        -3.8550   -0.3300   -1.5710 o         1 MOL     -0.687398
     68 H28        -4.3320    2.2460   -0.7130 hn        1 MOL      0.092282
     69 H29        -7.1640    2.0630   -1.4220 h1        1 MOL      0.120544
     70 H30        -5.1730    1.8720   -2.8950 hc        1 MOL      0.052989
     71 H31        -6.4420    0.8680   -3.1540 hc        1 MOL      0.052989
     72 H32        -5.6520   -0.9920   -3.9550 hn        1 MOL      0.342947
     73 H33        -4.2410   -1.8150   -3.1970 hn        1 MOL      0.342947
     74 N8         -6.2790    0.3450    0.9800 n         1 MOL     -0.286394
     75 C23        -6.5460   -0.7510    1.9800 c3        1 MOL     -0.221473
     76 C24        -5.5230   -1.8540    2.1740 c         1 MOL      0.525650
     77 O12        -5.6250   -2.7270    3.0210 o         1 MOL     -0.573330
     78 H34        -5.6020    1.0650    1.2040 hn        1 MOL      0.298346
     79 H35        -7.5330   -1.1820    1.7540 h1        1 MOL      0.127853
     80 H36        -6.5540   -0.2700    2.9560 h1        1 MOL      0.127853
     81 N9         -4.5040   -1.8380    1.2730 n         1 MOL     -0.057342
     82 C25        -3.5390   -2.9840    1.3070 c3        1 MOL      0.279285
     83 C26        -2.0630   -2.4040    1.2650 c         1 MOL      0.064924
     84 O13        -1.8910   -1.2800    0.7920 o         1 MOL     -0.385098
     85 C27        -3.6560   -3.8850    0.0730 c3        1 MOL      0.088236
     86 C28        -5.0570   -4.5710   -0.1500 ca        1 MOL     -0.224327
     87 C29        -6.0220   -3.9720   -0.9360 ca        1 MOL     -0.050233
     88 C30        -5.3580   -5.8030    0.4640 ca        1 MOL     -0.050233
     89 C31        -7.1300   -4.7140   -1.3480 ca        1 MOL     -0.207366
     90 C32        -6.5180   -6.5600    0.0590 ca        1 MOL     -0.207366
     91 C33        -7.3460   -6.0240   -0.9120 ca        1 MOL      0.256904
     92 O14        -8.4380   -6.7040   -1.3010 oh        1 MOL     -0.445532
     93 H37        -4.1650   -1.0070    0.8120 hn        1 MOL      0.101514
     94 H38        -3.5840   -3.6800    2.1500 h1        1 MOL      0.008563
     95 H39        -2.8060   -4.5600    0.0820 hc        1 MOL     -0.004078
     96 H40        -3.6190   -3.2090   -0.7890 hc        1 MOL     -0.004078
     97 H41        -5.8010   -2.9950   -1.3510 ha        1 MOL      0.096446
     98 H42        -4.7870   -6.2920    1.2430 ha        1 MOL      0.096446
     99 H43        -7.6830   -4.2730   -2.1680 ha        1 MOL      0.125012
    100 H44        -6.7120   -7.5350    0.4810 ha        1 MOL      0.125012
    101 H45        -8.3630   -7.6080   -0.9790 ho        1 MOL      0.342584
    102 N10        -1.0970   -3.1100    1.8840 n         1 MOL     -0.409692
    103 C34         0.3130   -2.7000    1.8950 c3        1 MOL      0.010494
    104 C35         1.0580   -3.7510    1.1230 c         1 MOL      0.744331
    105 O15         0.8610   -4.9330    1.3050 o         1 MOL     -0.625846
    106 C36         0.8540   -2.5340    3.3930 c3        1 MOL     -0.030300
    107 C37         0.3970   -1.1470    4.0100 c3        1 MOL     -0.001286
    108 C38         2.4300   -2.7530    3.5530 c3        1 MOL     -0.144946
    109 C39         0.6970   -1.0160    5.4790 c3        1 MOL     -0.206130
    110 H46        -1.2910   -3.9950    2.3260 hn        1 MOL      0.318597
    111 H47         0.3980   -1.7440    1.3720 h1        1 MOL      0.025616
    112 H48         0.4580   -3.4010    3.9090 hc        1 MOL      0.037046
    113 H49        -0.6650   -0.9930    3.8140 hc        1 MOL      0.088950
    114 H50         0.9370   -0.3150    3.5420 hc        1 MOL      0.088950
    115 H51         2.9200   -2.1710    2.7690 hc        1 MOL      0.036217
    116 H52         2.7270   -2.3910    4.5390 hc        1 MOL      0.036217
    117 H53         2.7020   -3.7970    3.3870 hc        1 MOL      0.036217
    118 H54         0.4380   -1.9490    5.9810 hc        1 MOL      0.051189
    119 H55         1.7250   -0.7510    5.7240 hc        1 MOL      0.051189
    120 H56        -0.0120   -0.3160    5.9260 hc        1 MOL      0.051189
    121 N11         1.9000   -3.3010    0.2000 n         1 MOL     -0.327467
    122 C40         2.8060   -4.1240   -0.5650 c3        1 MOL      0.057499
    123 C41         4.2490   -4.0750    0.0210 c         1 MOL      0.315871
    124 O16         4.7000   -3.1260    0.6990 o         1 MOL     -0.322153
    125 C42         2.7950   -3.7120   -2.0160 c3        1 MOL     -0.274941
    126 O17         3.4000   -2.4270   -2.2050 oh        1 MOL     -0.335917
    127 H57         2.1020   -2.3140    0.2150 hn        1 MOL      0.306555
    128 H58         2.4740   -5.1660   -0.4970 h1        1 MOL      0.066392
    129 H59         1.7820   -3.6500   -2.4160 h1        1 MOL      0.120946
    130 H60         3.3920   -4.5050   -2.4570 h1        1 MOL      0.120946
    131 H61         2.9400   -2.0470   -2.9710 ho        1 MOL      0.386728
    132 N12         4.9380   -5.0890   -0.4270 n         1 MOL     -0.324706
    133 C43         6.4190   -5.2240   -0.4230 c3        1 MOL      0.015261
    134 C44         7.1340   -4.2450   -1.2970 c         1 MOL      0.441933
    135 O18         8.3910   -4.1730   -1.2820 o         1 MOL     -0.528341
    136 C45         6.8540   -6.6380   -0.8340 c3        1 MOL     -0.279925
    137 H62         4.4250   -5.8170   -0.8980 hn        1 MOL      0.296469
    138 H63         6.7530   -5.0290    0.5940 h1        1 MOL      0.129885
    139 H64         6.5980   -6.7730   -1.8840 hc        1 MOL      0.102024
    140 H65         7.9100   -6.8410   -0.6790 hc        1 MOL      0.102024
    141 H66         6.3740   -7.4150   -0.2420 hc        1 MOL      0.102024
    142 N13         6.4540   -3.4540   -2.1070 n         1 MOL     -0.226704
    143 C46         6.9600   -2.3100   -2.7830 c3        1 MOL      0.056749
    144 C47         6.7270   -1.0030   -2.0220 c         1 MOL      0.441038
    145 O19         7.5210   -0.1010   -2.2200 o         1 MOL     -0.538429
    146 C48         6.3970   -2.1180   -4.2020 c3        1 MOL     -0.100708
    147 H67         5.4610   -3.5120   -1.9680 hn        1 MOL      0.160208
    148 H68         8.0360   -2.4170   -2.8460 h1        1 MOL      0.112801
    149 H69         6.8690   -1.2830   -4.7130 hc        1 MOL      0.030402
    150 H70         6.5940   -3.0000   -4.8110 hc        1 MOL      0.030402
    151 H71         5.3220   -1.9720   -4.1290 hc        1 MOL      0.030402
    152 N14         5.7710   -0.9140   -1.0460 n         1 MOL     -0.013408
    153 C49         5.4460    0.2300   -0.1960 c3        1 MOL     -0.042190
    154 C50         6.1210    0.2020    1.1920 c         1 MOL      0.420867
    155 O20         6.6310    1.2510    1.6640 o         1 MOL     -0.543112
    156 C51         3.9560    0.3490    0.0560 c3        1 MOL     -0.021163
    157 C52         3.1390    0.6920   -1.1870 c3        1 MOL     -0.061678
    158 C53         1.6540    0.7280   -0.7990 c         1 MOL      0.625329
    159 O21         0.9220    1.6450   -1.2330 o         1 MOL     -0.706808
    160 O22         1.0980   -0.2010   -0.1040 o         1 MOL     -0.706808
    161 H72         5.2300   -1.7400   -0.8510 hn        1 MOL     -0.205340
    162 H73         5.7850    1.1320   -0.6830 h1        1 MOL      0.071877
    163 H74         3.8010    1.1630    0.7690 hc        1 MOL      0.025861
    164 H75         3.6610   -0.6060    0.4870 hc        1 MOL      0.025861
    165 H76         3.2240   -0.0670   -1.9550 hc        1 MOL      0.006865
    166 H77         3.5530    1.5710   -1.6680 hc        1 MOL      0.006865
    167 N15         6.3170   -1.0170    1.7540 n         1 MOL     -0.163730
    168 C54         7.1480   -1.3060    2.9310 c3        1 MOL     -0.180286
    169 H78         7.8980   -2.0520    2.6700 h1        1 MOL      0.088041
    170 H79         7.6430   -0.3930    3.2600 h1        1 MOL      0.088041
    171 H80         6.5200   -1.6890    3.7350 h1        1 MOL      0.088041
    172 H81         5.8140   -1.8370    1.4290 hn        1 MOL      0.179082
    173 Ca1        -1.2410    0.2230   -1.2700 Ca        1 MOL      1.814421
    174 O23        -0.0240    0.2510   -3.6400 oh        1 MOL     -0.910427
    175 H82         0.8100   -0.0040   -4.0340 ho        1 MOL      0.421563
    176 H83        -0.4440    0.7940   -4.2970 ho        1 MOL      0.421563
    177 O24        -0.7010   -2.3650   -1.7410 oh        1 MOL     -0.910427
    178 H84        -1.4600   -2.6150   -2.2670 ho        1 MOL      0.421563
    179 H85        -0.1010   -3.1150   -1.8090 ho        1 MOL      0.421563
@<TRIPOS>BOND
     1    1    2 1   
     2    1    4 1   
     3    1    5 1   
     4    1    6 1   
     5    2    3 2   
     6    2    7 1   
     7    7    8 1   
     8    7   15 1   
     9    8    9 1   
    10    8   11 1   
    11    8   16 1   
    12    9   10 2   
    13    9   19 1   
    14   11   12 1   
    15   11   17 1   
    16   11   18 1   
    17   12   13 1   
    18   12   14 1   
    19   19   20 1   
    20   19   28 1   
    21   20   21 1   
    22   20   23 1   
    23   20   29 1   
    24   21   22 2   
    25   21   41 1   
    26   23   24 1   
    27   23   30 1   
    28   23   31 1   
    29   24   25 1   
    30   24   32 1   
    31   24   33 1   
    32   25   26 1   
    33   25   34 1   
    34   25   35 1   
    35   26   27 1   
    36   26   36 1   
    37   26   37 1   
    38   27   38 1   
    39   27   39 1   
    40   27   40 1   
    41   41   42 1   
    42   41   49 1   
    43   42   43 1   
    44   42   45 1   
    45   42   50 1   
    46   43   44 2   
    47   43   53 1   
    48   45   46 1   
    49   45   51 1   
    50   45   52 1   
    51   46   47 1   
    52   46   48 1   
    53   53   54 1   
    54   53   57 1   
    55   54   55 1   
    56   54   58 1   
    57   54   59 1   
    58   55   56 2   
    59   55   60 1   
    60   60   61 1   
    61   60   68 1   
    62   61   62 1   
    63   61   64 1   
    64   61   69 1   
    65   62   63 2   
    66   62   74 1   
    67   64   65 1   
    68   64   70 1   
    69   64   71 1   
    70   65   66 1   
    71   65   67 2   
    72   66   72 1   
    73   66   73 1   
    74   74   75 1   
    75   74   78 1   
    76   75   76 1   
    77   75   79 1   
    78   75   80 1   
    79   76   77 2   
    80   76   81 1   
    81   81   82 1   
    82   81   93 1   
    83   82   83 1   
    84   82   85 1   
    85   82   94 1   
    86   83   84 2   
    87   83  102 1   
    88   85   86 1   
    89   85   95 1   
    90   85   96 1   
    91   86   87 ar  
    92   86   88 ar  
    93   87   89 ar  
    94   87   97 1   
    95   88   90 ar  
    96   88   98 1   
    97   89   91 ar  
    98   89   99 1   
    99   90   91 ar  
   100   90  100 1   
   101   91   92 1   
   102   92  101 1   
   103  102  103 1   
   104  102  110 1   
   105  103  104 1   
   106  103  106 1   
   107  103  111 1   
   108  104  105 2   
   109  104  121 1   
   110  106  107 1   
   111  106  108 1   
   112  106  112 1   
   113  107  109 1   
   114  107  113 1   
   115  107  114 1   
   116  108  115 1   
   117  108  116 1   
   118  108  117 1   
   119  109  118 1   
   120  109  119 1   
   121  109  120 1   
   122  121  122 1   
   123  121  127 1   
   124  122  123 1   
   125  122  125 1   
   126  122  128 1   
   127  123  124 2   
   128  123  132 1   
   129  125  126 1   
   130  125  129 1   
   131  125  130 1   
   132  126  131 1   
   133  132  133 1   
   134  132  137 1   
   135  133  134 1   
   136  133  136 1   
   137  133  138 1   
   138  134  135 2   
   139  134  142 1   
   140  136  139 1   
   141  136  140 1   
   142  136  141 1   
   143  142  143 1   
   144  142  147 1   
   145  143  144 1   
   146  143  146 1   
   147  143  148 1   
   148  144  145 2   
   149  144  152 1   
   150  146  149 1   
   151  146  150 1   
   152  146  151 1   
   153  152  153 1   
   154  152  161 1   
   155  153  154 1   
   156  153  156 1   
   157  153  162 1   
   158  154  155 2   
   159  154  167 1   
   160  156  157 1   
   161  156  163 1   
   162  156  164 1   
   163  157  158 1   
   164  157  165 1   
   165  157  166 1   
   166  158  159 1   
   167  158  160 1   
   168  167  168 1   
   169  167  172 1   
   170  168  169 1   
   171  168  170 1   
   172  168  171 1   
   173  174  175 1   
   174  174  176 1   
   175  177  178 1   
   176  177  179 1   
@<TRIPOS>SUBSTRUCTURE
     1 MOL         1 TEMP              0 ****  ****    0 ROOT
