@<TRIPOS>MOLECULE
MOL
  175   173     1     0     0
SMALL
resp


@<TRIPOS>ATOM
      1 C1         -0.9850    3.0760    6.2740 c3        1 MOL     -0.260971
      2 C2         -0.9990    2.8110    4.7200 c         1 MOL      0.767247
      3 O1         -0.0670    3.1080    4.0260 o         1 MOL     -0.561932
      4 H1         -1.9850    3.3640    6.6020 hc        1 MOL      0.048104
      5 H2         -0.6800    2.1700    6.7960 hc        1 MOL      0.048104
      6 H3         -0.2840    3.8800    6.5000 hc        1 MOL      0.048104
      7 N1         -2.1610    2.2800    4.2580 n         1 MOL     -0.670817
      8 C3         -2.5260    2.2160    2.8280 c3        1 MOL      0.137411
      9 C4         -2.8680    3.5320    2.1860 c         1 MOL      0.801944
     10 O2         -3.4690    4.3450    2.9110 o         1 MOL     -0.630357
     11 C5         -3.6290    1.2080    2.6550 c3        1 MOL     -0.219761
     12 C6         -4.2820    1.0340    1.2740 c         1 MOL      0.520648
     13 O3         -5.4970    0.6450    1.2810 o         1 MOL     -0.560395
     14 O4         -3.5330    1.1670    0.3010 o         1 MOL     -0.560395
     15 H4         -2.7970    1.9550    4.9730 hn        1 MOL      0.332404
     16 H5         -1.6360    1.8650    2.2920 h1        1 MOL     -0.055061
     17 H6         -4.4480    1.3530    3.3510 hc        1 MOL      0.046514
     18 H7         -3.1530    0.2360    2.8340 hc        1 MOL      0.046514
     19 N2         -2.4940    3.6710    0.9450 n         1 MOL     -0.546066
     20 C7         -2.6630    4.9010    0.2450 c3        1 MOL     -0.002128
     21 C8         -3.4440    4.8450   -1.0850 c         1 MOL      0.661590
     22 O5         -3.3190    5.8020   -1.8600 o         1 MOL     -0.565223
     23 C9         -1.1950    5.4850    0.0780 c3        1 MOL     -0.098479
     24 H8         -2.3470    2.8400    0.3790 hn        1 MOL      0.348298
     25 H9         -3.1520    5.6800    0.8420 h1        1 MOL      0.049805
     26 H10        -0.7310    4.7940   -0.6280 hc        1 MOL      0.042577
     27 H11        -1.0210    6.4470   -0.4200 hc        1 MOL      0.042577
     28 H12        -0.6530    5.4990    1.0260 hc        1 MOL      0.042577
     29 N3         -4.2080    3.7840   -1.3030 n         1 MOL     -0.610223
     30 C10        -4.9900    3.6560   -2.4980 c3        1 MOL      0.179155
     31 C11        -6.4770    3.0510   -2.2910 c         1 MOL      0.424786
     32 O6         -7.3430    3.2880   -3.1150 o         1 MOL     -0.526970
     33 C12        -4.2430    2.9340   -3.6670 c3        1 MOL     -0.337306
     34 C13        -3.3300    1.7460   -3.2000 c         1 MOL      0.746924
     35 O7         -2.1740    1.9180   -2.9180 o         1 MOL     -0.708680
     36 O8         -3.8830    0.6120   -2.9690 o         1 MOL     -0.708680
     37 H13        -4.1310    2.9780   -0.6890 hn        1 MOL      0.256963
     38 H14        -5.1350    4.6770   -2.8290 h1        1 MOL      0.057364
     39 H15        -3.6310    3.7350   -4.0720 hc        1 MOL      0.086144
     40 H16        -4.9540    2.5450   -4.3960 hc        1 MOL      0.086144
     41 N4         -6.6920    2.2660   -1.2040 n         1 MOL     -0.188455
     42 C14        -8.0370    1.8650   -0.8460 c3        1 MOL     -0.185257
     43 C15        -8.3290    0.3190   -1.1070 c         1 MOL      0.494203
     44 O9         -9.4570   -0.2120   -0.9700 o         1 MOL     -0.586117
     45 H17        -5.9170    1.9080   -0.6730 hn        1 MOL      0.170640
     46 H18        -8.7350    2.4310   -1.4630 h1        1 MOL      0.108364
     47 H19        -8.1350    2.1610    0.2030 h1        1 MOL      0.108364
     48 N5         -7.2400   -0.4760   -1.2620 n         1 MOL     -0.188183
     49 C16        -7.2480   -1.9520   -1.4290 c3        1 MOL     -0.027934
     50 C17        -7.0240   -2.6430   -0.0540 c         1 MOL      0.389819
     51 O10        -7.0560   -3.8980    0.0130 o         1 MOL     -0.539356
     52 C18        -6.2360   -2.4120   -2.4790 c3        1 MOL     -0.179434
     53 C19        -4.7300   -2.0700   -2.2140 c         1 MOL      0.572090
     54 N6         -3.8250   -2.4650   -3.0470 n         1 MOL     -0.771938
     55 O11        -4.4110   -1.6350   -1.1340 o         1 MOL     -0.389628
     56 H20        -6.3240   -0.0650   -1.2200 hn        1 MOL      0.089573
     57 H21        -8.2020   -2.3100   -1.8110 h1        1 MOL      0.118108
     58 H22        -6.4670   -1.9440   -3.4380 hc        1 MOL      0.063216
     59 H23        -6.4660   -3.4680   -2.5340 hc        1 MOL      0.063216
     60 H24        -4.0530   -2.8210   -3.9630 hn        1 MOL      0.349466
     61 H25        -2.8630   -2.4320   -2.7350 hn        1 MOL      0.349466
     62 N7         -6.5540   -1.9520    1.0240 n         1 MOL     -0.129226
     63 C20        -6.4470   -2.6310    2.3970 c3        1 MOL     -0.145274
     64 C21        -5.1860   -3.4440    2.4810 c         1 MOL      0.565108
     65 O12        -5.1380   -4.3880    3.2620 o         1 MOL     -0.601787
     66 H26        -6.4760   -0.9460    1.0580 hn        1 MOL      0.176968
     67 H27        -7.3380   -3.2530    2.4720 h1        1 MOL      0.086203
     68 H28        -6.4890   -1.8040    3.0950 h1        1 MOL      0.086203
     69 N8         -4.0810   -3.2160    1.7990 n         1 MOL     -0.169981
     70 C22        -2.7210   -3.6940    1.8810 c3        1 MOL     -0.014490
     71 C23        -1.6490   -2.6710    1.4960 c         1 MOL      0.249554
     72 O13        -2.0210   -1.6490    0.8910 o         1 MOL     -0.377424
     73 C24        -2.5270   -4.8430    0.8660 c3        1 MOL      0.146719
     74 C25        -3.5760   -5.9950    1.1310 c3        1 MOL     -0.384167
     75 O14        -2.6110   -4.5650   -0.5390 oh        1 MOL     -0.555341
     76 H29        -4.1690   -2.4370    1.1460 hn        1 MOL      0.134320
     77 H30        -2.6170   -4.1600    2.8670 h1        1 MOL      0.087206
     78 H31        -1.5180   -5.2270    1.0190 h1        1 MOL      0.055786
     79 H32        -2.8830   -5.3930   -0.9350 ho        1 MOL      0.402725
     80 H33        -3.6130   -6.1880    2.2070 hc        1 MOL      0.108650
     81 H34        -4.5690   -5.8690    0.7040 hc        1 MOL      0.108650
     82 H35        -3.1960   -6.9380    0.7350 hc        1 MOL      0.108650
     83 N9         -0.4270   -3.0160    1.7170 n         1 MOL     -0.190123
     84 C26         0.7410   -2.1240    1.4510 c3        1 MOL     -0.048960
     85 C27         1.8920   -2.7710    0.6880 c         1 MOL      0.455316
     86 O15         2.4350   -3.8380    1.1220 o         1 MOL     -0.596847
     87 C28         1.2150   -1.3930    2.7390 c3        1 MOL      0.220978
     88 C29         1.8860   -2.3510    3.7920 c3        1 MOL     -0.257990
     89 C30         0.0940   -0.5750    3.4730 c3        1 MOL     -0.318567
     90 C31         2.6310   -1.7320    5.0320 c3        1 MOL     -0.176198
     91 H36        -0.2450   -3.9270    2.1360 hn        1 MOL      0.223946
     92 H37         0.3330   -1.3190    0.8360 h1        1 MOL     -0.027136
     93 H38         2.0070   -0.7140    2.4200 hc        1 MOL     -0.053881
     94 H39         2.7260   -2.8360    3.2910 hc        1 MOL      0.087209
     95 H40         1.1920   -3.1290    4.1170 hc        1 MOL      0.087209
     96 H41         0.6260    0.2790    3.8930 hc        1 MOL      0.098009
     97 H42        -0.6370   -0.2130    2.7550 hc        1 MOL      0.098009
     98 H43        -0.4070   -1.1940    4.2200 hc        1 MOL      0.098009
     99 H44         3.0900   -0.7810    4.7640 hc        1 MOL      0.048825
    100 H45         1.9270   -1.4080    5.7890 hc        1 MOL      0.048825
    101 H46         3.4540   -2.3410    5.3930 hc        1 MOL      0.048825
    102 N10         2.3700   -2.0330   -0.2890 n         1 MOL     -0.319571
    103 C32         3.5240   -2.4200   -1.1590 c3        1 MOL      0.184947
    104 C33         4.8440   -1.7610   -0.7510 c         1 MOL      0.425146
    105 O16         4.7640   -0.8360    0.0970 o         1 MOL     -0.402964
    106 C34         3.1570   -1.9650   -2.5630 c3        1 MOL     -0.294848
    107 C35         1.8100   -2.4850   -3.0830 c         1 MOL      0.694894
    108 O17         1.1480   -3.3870   -2.5050 o         1 MOL     -0.677053
    109 O18         1.3790   -1.9240   -4.1680 o         1 MOL     -0.677053
    110 H47         1.8490   -1.2170   -0.5740 hn        1 MOL      0.419314
    111 H48         3.6640   -3.5060   -1.1960 h1        1 MOL      0.046556
    112 H49         3.9420   -2.1730   -3.2890 hc        1 MOL      0.060942
    113 H50         3.0990   -0.8780   -2.5180 hc        1 MOL      0.060942
    114 N11         6.0000   -2.1130   -1.3610 n         1 MOL     -0.681123
    115 C36         7.2750   -1.5180   -0.8430 c3        1 MOL      0.480189
    116 C37         7.3680    0.0160   -0.5000 c         1 MOL      0.385726
    117 O19         7.7990    0.3770    0.5860 o         1 MOL     -0.527832
    118 C38         8.4490   -2.0310   -1.6730 c3        1 MOL     -0.203501
    119 C39         9.8570   -1.5300   -1.2060 ca        1 MOL      0.004392
    120 C40        10.5610   -2.1960   -0.2090 ca        1 MOL     -0.076907
    121 C41        10.2890   -0.3110   -1.7560 ca        1 MOL     -0.076907
    122 C42        11.7350   -1.5650    0.2870 ca        1 MOL     -0.217332
    123 C43        11.4870    0.2970   -1.3470 ca        1 MOL     -0.217332
    124 C44        12.1250   -0.3290   -0.2980 ca        1 MOL      0.001082
    125 H51         6.0060   -2.8290   -2.0900 hn        1 MOL      0.347785
    126 H52         7.4660   -1.8870    0.1660 h1        1 MOL     -0.016368
    127 H53         8.2280   -1.7750   -2.7170 hc        1 MOL      0.048143
    128 H54         8.5610   -3.0990   -1.5530 hc        1 MOL      0.048143
    129 H55        10.2210   -3.1340    0.2110 ha        1 MOL      0.106987
    130 H56         9.7830    0.1400   -2.5890 ha        1 MOL      0.106987
    131 H57        12.2920   -2.0050    1.0950 ha        1 MOL      0.140984
    132 H58        11.7870    1.3010   -1.6140 ha        1 MOL      0.140984
    133 H59        12.9600    0.1900    0.1420 ha        1 MOL      0.069749
    134 N12         6.9930    0.9150   -1.4400 n         1 MOL     -0.004139
    135 C45         6.9620    2.3560   -1.2040 c3        1 MOL     -0.096484
    136 C46         5.9450    2.8360   -0.1450 c         1 MOL      0.365938
    137 O20         6.2060    3.8690    0.4880 o         1 MOL     -0.499955
    138 C47         6.6600    3.0360   -2.5960 c3        1 MOL     -0.209567
    139 C48         5.9250    1.8960   -3.3180 c3        1 MOL      0.113455
    140 C49         6.5010    0.5890   -2.7760 c3        1 MOL     -0.167775
    141 H60         7.9760    2.6860   -0.9550 h1        1 MOL      0.094612
    142 H61         5.9940    3.8990   -2.6450 hc        1 MOL      0.085507
    143 H62         7.5700    3.1420   -3.1790 hc        1 MOL      0.085507
    144 H63         4.8810    1.8760   -3.0260 hc        1 MOL      0.003028
    145 H64         5.9520    1.9720   -4.4080 hc        1 MOL      0.003028
    146 H65         5.7200   -0.1730   -2.7220 h1        1 MOL      0.046714
    147 H66         7.3150    0.2410   -3.4090 h1        1 MOL      0.046714
    148 N13         4.8280    2.1500   -0.0280 n         1 MOL     -0.171058
    149 C50         3.9450    2.4850    1.1130 c3        1 MOL     -0.183931
    150 C51         4.4480    2.0390    2.4790 c         1 MOL      0.417928
    151 O21         4.3250    2.7690    3.4670 o         1 MOL     -0.547649
    152 C52         2.6360    1.7460    0.8320 c3        1 MOL      0.064428
    153 C53         1.8660    2.1040   -0.4130 c3        1 MOL     -0.194174
    154 C54         0.6720    1.1430   -0.4980 c         1 MOL      0.807533
    155 O22         0.6610    0.2060   -1.3340 o         1 MOL     -0.773850
    156 O23        -0.3500    1.2930    0.2490 o         1 MOL     -0.773850
    157 H67         4.7250    1.2390   -0.4430 hn        1 MOL      0.269875
    158 H68         3.7530    3.5520    1.0960 h1        1 MOL      0.144167
    159 H69         2.0500    1.8040    1.7480 hc        1 MOL      0.086733
    160 H70         2.8700    0.6860    0.7020 hc        1 MOL      0.086733
    161 H71         2.4880    1.8930   -1.2860 hc        1 MOL      0.016628
    162 H72         1.4900    3.1170   -0.2940 hc        1 MOL      0.016628
    163 N14         5.1020    0.9040    2.5250 n         1 MOL     -0.009325
    164 C55         5.8630    0.2220    3.6390 c3        1 MOL     -0.274549
    165 H73         6.3400   -0.6790    3.2550 h1        1 MOL      0.106579
    166 H74         6.6250    0.8980    4.0270 h1        1 MOL      0.106579
    167 H75         5.1730   -0.0460    4.4400 h1        1 MOL      0.106579
    168 H76         4.9610    0.3490    1.6910 hn        1 MOL      0.066168
    169 Ca1        -1.9920   -0.0120   -1.2960 Ca        1 MOL      1.655525
    170 O24        -1.0650   -0.7030   -3.9000 oh        1 MOL     -0.816568
    171 H77        -0.3100   -1.2990   -3.8990 ho        1 MOL      0.388642
    172 H78        -1.2500   -0.5420   -4.8240 ho        1 MOL      0.388642
    173 O25        -1.2020   -2.6140   -1.8270 oh        1 MOL     -0.816568
    174 H79        -1.6240   -3.2480   -1.2430 ho        1 MOL      0.388642
    175 H80        -0.3670   -3.0120   -2.0420 ho        1 MOL      0.388642
@<TRIPOS>BOND
     1    1    2 1   
     2    1    4 1   
     3    1    5 1   
     4    1    6 1   
     5    2    3 2   
     6    2    7 1   
     7    7    8 1   
     8    7   15 1   
     9    8    9 1   
    10    8   11 1   
    11    8   16 1   
    12    9   10 2   
    13    9   19 1   
    14   11   12 1   
    15   11   17 1   
    16   11   18 1   
    17   12   13 1   
    18   12   14 1   
    19   19   20 1   
    20   19   24 1   
    21   20   21 1   
    22   20   23 1   
    23   20   25 1   
    24   21   22 2   
    25   21   29 1   
    26   23   26 1   
    27   23   27 1   
    28   23   28 1   
    29   29   30 1   
    30   29   37 1   
    31   30   31 1   
    32   30   33 1   
    33   30   38 1   
    34   31   32 2   
    35   31   41 1   
    36   33   34 1   
    37   33   39 1   
    38   33   40 1   
    39   34   35 1   
    40   34   36 1   
    41   41   42 1   
    42   41   45 1   
    43   42   43 1   
    44   42   46 1   
    45   42   47 1   
    46   43   44 2   
    47   43   48 1   
    48   48   49 1   
    49   48   56 1   
    50   49   50 1   
    51   49   52 1   
    52   49   57 1   
    53   50   51 2   
    54   50   62 1   
    55   52   53 1   
    56   52   58 1   
    57   52   59 1   
    58   53   54 1   
    59   53   55 2   
    60   54   60 1   
    61   54   61 1   
    62   62   63 1   
    63   62   66 1   
    64   63   64 1   
    65   63   67 1   
    66   63   68 1   
    67   64   65 2   
    68   64   69 1   
    69   69   70 1   
    70   69   76 1   
    71   70   71 1   
    72   70   73 1   
    73   70   77 1   
    74   71   72 2   
    75   71   83 1   
    76   73   74 1   
    77   73   75 1   
    78   73   78 1   
    79   74   80 1   
    80   74   81 1   
    81   74   82 1   
    82   75   79 1   
    83   83   84 1   
    84   83   91 1   
    85   84   85 1   
    86   84   87 1   
    87   84   92 1   
    88   85   86 2   
    89   85  102 1   
    90   87   88 1   
    91   87   89 1   
    92   87   93 1   
    93   88   90 1   
    94   88   94 1   
    95   88   95 1   
    96   89   96 1   
    97   89   97 1   
    98   89   98 1   
    99   90   99 1   
   100   90  100 1   
   101   90  101 1   
   102  102  103 1   
   103  102  110 1   
   104  103  104 1   
   105  103  106 1   
   106  103  111 1   
   107  104  105 2   
   108  104  114 1   
   109  106  107 1   
   110  106  112 1   
   111  106  113 1   
   112  107  108 1   
   113  107  109 1   
   114  114  115 1   
   115  114  125 1   
   116  115  116 1   
   117  115  118 1   
   118  115  126 1   
   119  116  117 2   
   120  116  134 1   
   121  118  119 1   
   122  118  127 1   
   123  118  128 1   
   124  119  120 ar  
   125  119  121 ar  
   126  120  122 ar  
   127  120  129 1   
   128  121  123 ar  
   129  121  130 1   
   130  122  124 ar  
   131  122  131 1   
   132  123  124 ar  
   133  123  132 1   
   134  124  133 1   
   135  134  135 1   
   136  134  140 1   
   137  135  136 1   
   138  135  138 1   
   139  135  141 1   
   140  136  137 2   
   141  136  148 1   
   142  138  139 1   
   143  138  142 1   
   144  138  143 1   
   145  139  140 1   
   146  139  144 1   
   147  139  145 1   
   148  140  146 1   
   149  140  147 1   
   150  148  149 1   
   151  148  157 1   
   152  149  150 1   
   153  149  152 1   
   154  149  158 1   
   155  150  151 2   
   156  150  163 1   
   157  152  153 1   
   158  152  159 1   
   159  152  160 1   
   160  153  154 1   
   161  153  161 1   
   162  153  162 1   
   163  154  155 1   
   164  154  156 1   
   165  163  164 1   
   166  163  168 1   
   167  164  165 1   
   168  164  166 1   
   169  164  167 1   
   170  170  171 1   
   171  170  172 1   
   172  173  174 1   
   173  173  175 1   
@<TRIPOS>SUBSTRUCTURE
     1 MOL         1 TEMP              0 ****  ****    0 ROOT
