@<TRIPOS>MOLECULE
MOL
  189   185     1     0     0
SMALL
resp


@<TRIPOS>ATOM
      1 C1          0.2570   -4.3390    5.9940 c3        1 MOL     -0.358201
      2 C2          0.6310   -3.6350    4.5830 c         1 MOL      0.726924
      3 O1          0.8190   -2.4100    4.5110 o         1 MOL     -0.619684
      4 H1          0.9380   -5.1710    6.1750 hc        1 MOL      0.091768
      5 H2          0.3520   -3.6120    6.8000 hc        1 MOL      0.091768
      6 H3         -0.7670   -4.7100    5.9560 hc        1 MOL      0.091768
      7 N1          0.8790   -4.4750    3.5640 n         1 MOL     -0.669901
      8 C3          1.5090   -4.1080    2.3140 c3        1 MOL      0.361092
      9 C4          1.1970   -5.0970    1.2420 c         1 MOL      0.416603
     10 O2          1.3890   -6.3070    1.4310 o         1 MOL     -0.580966
     11 C5          2.9940   -4.0320    2.4730 c3        1 MOL     -0.081607
     12 C6          3.7640   -3.4050    1.2800 c         1 MOL      0.727907
     13 O3          4.9490   -3.5620    1.3070 o         1 MOL     -0.658617
     14 O4          3.2050   -2.7170    0.3620 o         1 MOL     -0.658617
     15 H4          0.5440   -5.4180    3.6660 hn        1 MOL      0.312672
     16 H5          1.1270   -3.1410    1.9980 h1        1 MOL      0.097012
     17 H6          3.4210   -4.9930    2.7490 hc        1 MOL     -0.012777
     18 H7          3.2170   -3.3830    3.3250 hc        1 MOL     -0.012777
     19 N2          0.8210   -4.6340    0.0380 n         1 MOL      0.031454
     20 C7          0.5770   -5.4350   -1.1970 c3        1 MOL     -0.214716
     21 C8          1.6760   -5.3130   -2.2120 c         1 MOL      0.799779
     22 O5          1.9080   -6.2310   -2.9900 o         1 MOL     -0.634602
     23 C9         -0.7630   -4.8310   -1.7280 c3        1 MOL      0.370279
     24 C10        -1.8640   -5.4110   -0.8900 c3        1 MOL     -0.264709
     25 C11        -1.0320   -4.9810   -3.2440 c3        1 MOL     -0.228296
     26 C12        -3.2620   -4.8270   -1.0790 c3        1 MOL     -0.018720
     27 H8          0.6950   -3.6320   -0.1020 hn        1 MOL     -0.527950
     28 H9          0.4140   -6.4980   -1.0400 h1        1 MOL      0.062248
     29 H10        -0.7700   -3.7600   -1.5070 hc        1 MOL     -0.001556
     30 H11        -1.7400   -5.1740    0.1660 hc        1 MOL      0.070167
     31 H12        -1.9140   -6.5050   -0.9640 hc        1 MOL      0.070167
     32 H13        -0.8440   -6.0040   -3.5700 hc        1 MOL      0.037799
     33 H14        -2.0780   -4.7470   -3.4370 hc        1 MOL      0.037799
     34 H15        -0.2960   -4.3860   -3.7720 hc        1 MOL      0.037799
     35 H16        -3.5910   -5.0510   -2.0880 hc        1 MOL      0.015862
     36 H17        -3.9500   -5.2820   -0.3700 hc        1 MOL      0.015862
     37 H18        -3.2840   -3.7360   -1.0190 hc        1 MOL      0.015862
     38 N3          2.4310   -4.2100   -2.1870 n         1 MOL     -0.654970
     39 C13         3.3280   -3.8430   -3.2930 c3        1 MOL      0.073248
     40 C14         4.7850   -3.4760   -3.0290 c         1 MOL      0.483310
     41 O6          5.5310   -3.5330   -3.9810 o         1 MOL     -0.573189
     42 C15         2.7300   -2.6540   -4.1070 c3        1 MOL     -0.241870
     43 C16         2.5770   -1.3310   -3.3430 c         1 MOL      0.743216
     44 O7          3.1990   -1.1310   -2.2780 o         1 MOL     -0.715188
     45 O8          1.7330   -0.4940   -3.7460 o         1 MOL     -0.715188
     46 H19         2.2060   -3.4410   -1.5720 hn        1 MOL      0.495671
     47 H20         3.4200   -4.6480   -4.0100 h1        1 MOL      0.089301
     48 H21         1.7250   -2.9520   -4.4150 hc        1 MOL      0.059995
     49 H22         3.3890   -2.4610   -4.9500 hc        1 MOL      0.059995
     50 N4          5.2150   -3.2740   -1.7460 n         1 MOL     -0.192913
     51 C17         6.6200   -2.9970   -1.4180 c3        1 MOL     -0.340649
     52 C18         7.0690   -1.5220   -1.3900 c         1 MOL      0.630519
     53 O9          8.1430   -1.2780   -0.7690 o         1 MOL     -0.636826
     54 H23         4.6280   -3.0850   -0.9460 hn        1 MOL      0.124698
     55 H24         7.2060   -3.5570   -2.1390 h1        1 MOL      0.141960
     56 H25         6.7490   -3.3870   -0.4050 h1        1 MOL      0.141960
     57 N5          6.3380   -0.5130   -1.9040 n         1 MOL     -0.417681
     58 C19         6.9450    0.7980   -2.2180 c3        1 MOL      0.039543
     59 C20         7.4290    1.6800   -1.0080 c         1 MOL      0.436372
     60 O10         8.2550    2.5820   -1.1920 o         1 MOL     -0.575836
     61 C21         5.9150    1.6670   -2.9890 c3        1 MOL     -0.232522
     62 C22         4.6380    1.9630   -2.2060 c         1 MOL      0.763130
     63 O11         4.3370    1.4110   -1.1220 o         1 MOL     -0.713483
     64 O12         3.8870    2.8520   -2.6410 o         1 MOL     -0.713483
     65 H26         5.5590   -0.8600   -2.4470 hn        1 MOL      0.306103
     66 H27         7.7560    0.6380   -2.9360 h1        1 MOL      0.065737
     67 H28         5.6540    1.1290   -3.8950 hc        1 MOL      0.068240
     68 H29         6.3290    2.6330   -3.2430 hc        1 MOL      0.068240
     69 N6          6.8310    1.4740    0.1590 n         1 MOL     -0.189629
     70 C23         7.0500    2.2970    1.3890 c3        1 MOL     -0.126098
     71 C24         6.0500    3.3910    1.6450 c         1 MOL      0.555153
     72 O13         6.4050    4.2270    2.4530 o         1 MOL     -0.598205
     73 H30         6.1630    0.7190    0.1710 hn        1 MOL      0.247413
     74 H31         8.0230    2.7780    1.3010 h1        1 MOL      0.078875
     75 H32         7.1570    1.6810    2.2870 h1        1 MOL      0.078875
     76 N7          4.8430    3.3410    1.0100 n         1 MOL     -0.366286
     77 C25         3.7500    4.1790    1.4140 c3        1 MOL      0.001633
     78 C26         2.4550    3.2520    1.5730 c         1 MOL      0.513748
     79 O14         2.4320    2.0360    1.2890 o         1 MOL     -0.504156
     80 C27         3.4880    5.2630    0.3490 c3        1 MOL     -0.128513
     81 C28         4.7220    6.0090    0.1050 c3        1 MOL     -0.061027
     82 C29         4.5940    7.2510   -0.7160 c         1 MOL      0.656627
     83 N8          5.7270    7.9180   -0.9270 n         1 MOL     -0.818398
     84 O15         3.5260    7.7790   -1.0120 o         1 MOL     -0.566427
     85 H33         4.6480    2.6710    0.2750 hn        1 MOL      0.288433
     86 H34         3.9000    4.6530    2.3880 h1        1 MOL      0.056729
     87 H35         2.7550    5.9900    0.6920 hc        1 MOL      0.060263
     88 H36         3.0820    4.7480   -0.5240 hc        1 MOL      0.060263
     89 H37         5.5130    5.4170   -0.3670 hc        1 MOL      0.053578
     90 H38         5.0840    6.3450    1.0730 hc        1 MOL      0.053578
     91 H39         6.6010    7.4640   -0.6900 hn        1 MOL      0.350836
     92 H40         5.7120    8.6810   -1.5910 hn        1 MOL      0.350836
     93 N9          1.4460    3.7720    2.1880 n         1 MOL     -0.464681
     94 C30         0.1990    3.0220    2.4150 c3        1 MOL     -0.060950
     95 C31        -0.8240    3.3170    1.4360 c         1 MOL      0.576256
     96 O16        -1.3560    4.4480    1.3980 o         1 MOL     -0.620956
     97 C32        -0.2780    3.1390    3.8990 c3        1 MOL      0.315752
     98 C33        -1.4010    2.1260    3.9990 c3        1 MOL     -0.230791
     99 C34         0.8700    2.8380    4.9010 c3        1 MOL     -0.230791
    100 H41         1.4530    4.6540    2.6660 hn        1 MOL      0.296314
    101 H42         0.4530    1.9670    2.2910 h1        1 MOL      0.175278
    102 H43        -0.6410    4.1380    4.1220 hc        1 MOL     -0.042677
    103 H44        -1.7290    2.0740    5.0410 hc        1 MOL      0.036300
    104 H45        -2.2730    2.5100    3.4660 hc        1 MOL      0.036300
    105 H46        -1.1590    1.1670    3.5580 hc        1 MOL      0.036300
    106 H47         1.6150    3.6310    4.8100 hc        1 MOL      0.036300
    107 H48         0.5260    2.8350    5.9350 hc        1 MOL      0.036300
    108 H49         1.3800    1.9400    4.5510 hc        1 MOL      0.036300
    109 N10        -1.2950    2.3230    0.7080 n         1 MOL     -0.193909
    110 C35        -2.5630    2.4250   -0.0790 c3        1 MOL      0.022486
    111 C36        -3.8560    2.2780    0.7450 c         1 MOL      0.181417
    112 O17        -3.8950    1.6110    1.7400 o         1 MOL     -0.185525
    113 C37        -2.5070    1.3870   -1.2360 c3        1 MOL     -0.295760
    114 C38        -3.6570    1.6070   -2.2360 c         1 MOL      0.759515
    115 N11        -3.6770    2.7060   -2.8850 n         1 MOL     -0.762784
    116 O18        -4.5140    0.7830   -2.3950 o         1 MOL     -0.617828
    117 H50        -0.9460    1.4030    0.9490 hn        1 MOL     -0.033228
    118 H51        -2.5780    3.3770   -0.6030 h1        1 MOL      0.080356
    119 H52        -2.3750    0.3650   -0.8710 hc        1 MOL      0.134181
    120 H53        -1.6940    1.5760   -1.9290 hc        1 MOL      0.134181
    121 H54        -3.0860    3.5060   -2.7250 hn        1 MOL      0.346423
    122 H55        -4.5020    2.8890   -3.4360 hn        1 MOL      0.346423
    123 N12        -4.9480    2.8400    0.2290 n         1 MOL     -0.155388
    124 C39        -6.3320    2.6620    0.9000 c3        1 MOL      0.102294
    125 C40        -6.7170    1.1500    1.0020 c         1 MOL      0.270373
    126 O19        -7.1210    0.7110    2.1080 o         1 MOL     -0.528034
    127 C41        -7.4140    3.4640    0.1940 c3        1 MOL     -0.276494
    128 C42        -7.2610    3.3740   -1.3180 ca        1 MOL      0.070452
    129 C43        -6.6050    4.4720   -1.9590 ca        1 MOL     -0.180520
    130 C44        -7.8410    2.3530   -2.1230 ca        1 MOL     -0.180520
    131 C45        -6.5960    4.5220   -3.3680 ca        1 MOL     -0.219190
    132 C46        -7.7220    2.3700   -3.5370 ca        1 MOL     -0.219190
    133 C47        -7.1010    3.4860   -4.1900 ca        1 MOL      0.325269
    134 O20        -6.8590    3.4480   -5.5490 oh        1 MOL     -0.591075
    135 H56        -4.8650    3.3580   -0.6290 hn        1 MOL      0.095690
    136 H57        -6.1820    3.0420    1.9070 h1        1 MOL      0.067058
    137 H58        -7.2780    4.4990    0.4950 hc        1 MOL      0.107533
    138 H59        -8.4050    3.1320    0.4990 hc        1 MOL      0.107533
    139 H60        -6.1510    5.2450   -1.3670 ha        1 MOL      0.141632
    140 H61        -8.3220    1.5310   -1.6300 ha        1 MOL      0.141632
    141 H62        -6.2610    5.4440   -3.8080 ha        1 MOL      0.121212
    142 H63        -8.0840    1.5810   -4.1700 ha        1 MOL      0.121212
    143 H64        -7.1910    2.6660   -5.9940 ho        1 MOL      0.444637
    144 N13        -6.3290    0.3100    0.0320 n         1 MOL      0.027535
    145 C48        -6.4930   -1.1650    0.1240 c3        1 MOL     -0.430030
    146 C49        -5.5550   -1.9370    1.1200 c         1 MOL      0.466215
    147 O21        -5.8310   -3.0220    1.5800 o         1 MOL     -0.503956
    148 C50        -6.3350   -1.8990   -1.2770 c3        1 MOL      0.156168
    149 C51        -7.3980   -1.5200   -2.2790 c3        1 MOL     -0.101764
    150 C52        -8.8060   -1.8440   -1.9490 c         1 MOL      0.648006
    151 O22        -9.0160   -2.7460   -1.0870 o         1 MOL     -0.718916
    152 O23        -9.7600   -1.1360   -2.4280 o         1 MOL     -0.718916
    153 H65        -5.8980    0.7210   -0.7810 hn        1 MOL      0.429434
    154 H66        -7.4820   -1.3930    0.5300 h1        1 MOL      0.223296
    155 H67        -6.3710   -2.9760   -1.1080 hc        1 MOL     -0.008677
    156 H68        -5.3530   -1.6850   -1.6920 hc        1 MOL     -0.008677
    157 H69        -7.1680   -2.1350   -3.1550 hc        1 MOL     -0.026186
    158 H70        -7.3640   -0.4510   -2.4780 hc        1 MOL     -0.026186
    159 N14        -4.4820   -1.2160    1.5080 n         1 MOL     -0.033067
    160 C53        -3.4760   -1.7050    2.4120 c3        1 MOL     -0.082473
    161 C54        -3.7720   -1.1760    3.8890 c         1 MOL      0.441111
    162 O24        -3.5220   -1.9480    4.8280 o         1 MOL     -0.576917
    163 C55        -2.0920   -1.1760    1.9610 c3        1 MOL      0.019618
    164 C56        -1.6170   -1.8870    0.7230 c3        1 MOL     -0.024577
    165 C57        -0.3090   -1.2850    0.1660 c         1 MOL      0.542385
    166 O25         0.4640   -1.9470   -0.5880 o         1 MOL     -0.481213
    167 O26         0.0920   -0.2230    0.6630 o         1 MOL     -0.481213
    168 H71        -4.3630   -0.2450    1.2500 hn        1 MOL     -0.148515
    169 H72        -3.5350   -2.7930    2.4630 h1        1 MOL      0.085769
    170 H73        -1.3930   -1.4510    2.7490 hc        1 MOL      0.020696
    171 H74        -2.1270   -0.0810    1.9220 hc        1 MOL      0.020696
    172 H75        -2.4080   -1.6450    0.0090 hc        1 MOL      0.030341
    173 H76        -1.5050   -2.9560    0.8990 hc        1 MOL      0.030341
    174 N15        -4.3260    0.0010    3.9580 n         1 MOL     -0.038334
    175 C58        -4.7500    0.6940    5.1740 c3        1 MOL     -0.184172
    176 H77        -5.6850    1.2210    4.9840 h1        1 MOL      0.071151
    177 H78        -4.8990   -0.0320    5.9740 h1        1 MOL      0.071151
    178 H79        -3.9840    1.4110    5.4710 h1        1 MOL      0.071151
    179 H80        -4.2180    0.5730    3.1340 hn        1 MOL      0.083595
    180 Ca1         2.6850   -0.2490    0.1570 Ca        1 MOL      1.708501
    181 O27         2.2660   -0.5720    2.6810 oh        1 MOL     -0.973358
    182 H81         2.8940   -0.2100    3.3110 ho        1 MOL      0.449942
    183 H82         1.6790   -1.1020    3.2040 ho        1 MOL      0.449942
    184 O28         5.0460   -0.1100    1.7860 oh        1 MOL     -0.973358
    185 H83         5.6590   -0.8410    1.7580 ho        1 MOL      0.449942
    186 H84         5.0450    0.1670    2.7060 ho        1 MOL      0.449942
    187 O29         1.5900    1.2030   -1.7470 oh        1 MOL     -0.973358
    188 H85         1.6610    0.5540   -2.4410 ho        1 MOL      0.449942
    189 H86         2.2370    1.8670   -1.9580 ho        1 MOL      0.449942
@<TRIPOS>BOND
     1    1    2 1   
     2    1    4 1   
     3    1    5 1   
     4    1    6 1   
     5    2    3 2   
     6    2    7 1   
     7    7    8 1   
     8    7   15 1   
     9    8    9 1   
    10    8   11 1   
    11    8   16 1   
    12    9   10 2   
    13    9   19 1   
    14   11   12 1   
    15   11   17 1   
    16   11   18 1   
    17   12   13 1   
    18   12   14 1   
    19   19   20 1   
    20   19   27 1   
    21   20   21 1   
    22   20   23 1   
    23   20   28 1   
    24   21   22 2   
    25   21   38 1   
    26   23   24 1   
    27   23   25 1   
    28   23   29 1   
    29   24   26 1   
    30   24   30 1   
    31   24   31 1   
    32   25   32 1   
    33   25   33 1   
    34   25   34 1   
    35   26   35 1   
    36   26   36 1   
    37   26   37 1   
    38   38   39 1   
    39   38   46 1   
    40   39   40 1   
    41   39   42 1   
    42   39   47 1   
    43   40   41 2   
    44   40   50 1   
    45   42   43 1   
    46   42   48 1   
    47   42   49 1   
    48   43   44 1   
    49   43   45 1   
    50   50   51 1   
    51   50   54 1   
    52   51   52 1   
    53   51   55 1   
    54   51   56 1   
    55   52   53 2   
    56   52   57 1   
    57   57   58 1   
    58   57   65 1   
    59   58   59 1   
    60   58   61 1   
    61   58   66 1   
    62   59   60 2   
    63   59   69 1   
    64   61   62 1   
    65   61   67 1   
    66   61   68 1   
    67   62   63 1   
    68   62   64 1   
    69   69   70 1   
    70   69   73 1   
    71   70   71 1   
    72   70   74 1   
    73   70   75 1   
    74   71   72 2   
    75   71   76 1   
    76   76   77 1   
    77   76   85 1   
    78   77   78 1   
    79   77   80 1   
    80   77   86 1   
    81   78   79 2   
    82   78   93 1   
    83   80   81 1   
    84   80   87 1   
    85   80   88 1   
    86   81   82 1   
    87   81   89 1   
    88   81   90 1   
    89   82   83 1   
    90   82   84 2   
    91   83   91 1   
    92   83   92 1   
    93   93   94 1   
    94   93  100 1   
    95   94   95 1   
    96   94   97 1   
    97   94  101 1   
    98   95   96 2   
    99   95  109 1   
   100   97   98 1   
   101   97   99 1   
   102   97  102 1   
   103   98  103 1   
   104   98  104 1   
   105   98  105 1   
   106   99  106 1   
   107   99  107 1   
   108   99  108 1   
   109  109  110 1   
   110  109  117 1   
   111  110  111 1   
   112  110  113 1   
   113  110  118 1   
   114  111  112 2   
   115  111  123 1   
   116  113  114 1   
   117  113  119 1   
   118  113  120 1   
   119  114  115 1   
   120  114  116 2   
   121  115  121 1   
   122  115  122 1   
   123  123  124 1   
   124  123  135 1   
   125  124  125 1   
   126  124  127 1   
   127  124  136 1   
   128  125  126 2   
   129  125  144 1   
   130  127  128 1   
   131  127  137 1   
   132  127  138 1   
   133  128  129 ar  
   134  128  130 ar  
   135  129  131 ar  
   136  129  139 1   
   137  130  132 ar  
   138  130  140 1   
   139  131  133 ar  
   140  131  141 1   
   141  132  133 ar  
   142  132  142 1   
   143  133  134 1   
   144  134  143 1   
   145  144  145 1   
   146  144  153 1   
   147  145  146 1   
   148  145  148 1   
   149  145  154 1   
   150  146  147 2   
   151  146  159 1   
   152  148  149 1   
   153  148  155 1   
   154  148  156 1   
   155  149  150 1   
   156  149  157 1   
   157  149  158 1   
   158  150  151 1   
   159  150  152 1   
   160  159  160 1   
   161  159  168 1   
   162  160  161 1   
   163  160  163 1   
   164  160  169 1   
   165  161  162 2   
   166  161  174 1   
   167  163  164 1   
   168  163  170 1   
   169  163  171 1   
   170  164  165 1   
   171  164  172 1   
   172  164  173 1   
   173  165  166 1   
   174  165  167 1   
   175  174  175 1   
   176  174  179 1   
   177  175  176 1   
   178  175  177 1   
   179  175  178 1   
   180  181  182 1   
   181  181  183 1   
   182  184  185 1   
   183  184  186 1   
   184  187  188 1   
   185  187  189 1   
@<TRIPOS>SUBSTRUCTURE
     1 MOL         1 TEMP              0 ****  ****    0 ROOT
