@<TRIPOS>MOLECULE
MOL
  172   171     1     0     0
SMALL
resp


@<TRIPOS>ATOM
      1 C1          0.3060    4.0090    5.5160 c3        1 MOL     -0.268011
      2 C2         -0.2870    3.9700    4.1390 c         1 MOL      0.745668
      3 O1          0.4230    4.2120    3.2070 o         1 MOL     -0.574986
      4 H1          1.3240    4.3940    5.4620 hc        1 MOL      0.055689
      5 H2         -0.2940    4.6600    6.1520 hc        1 MOL      0.055689
      6 H3          0.3190    3.0030    5.9350 hc        1 MOL      0.055689
      7 N1         -1.5210    3.5200    3.9730 n         1 MOL     -0.625842
      8 C3         -2.1800    3.4140    2.6710 c3        1 MOL      0.251646
      9 C4         -2.3470    4.6750    1.8380 c         1 MOL      0.526056
     10 O2         -2.6400    5.7460    2.3680 o         1 MOL     -0.565998
     11 C5         -3.5240    2.7390    2.8400 c3        1 MOL     -0.330464
     12 C6         -4.3490    2.5060    1.5080 c         1 MOL      0.713248
     13 O3         -3.8460    1.8620    0.5730 o         1 MOL     -0.646199
     14 O4         -5.3290    3.2140    1.3500 o         1 MOL     -0.646199
     15 H4         -1.9870    3.1890    4.7940 hn        1 MOL      0.306983
     16 H5         -1.5480    2.6660    2.1760 h1        1 MOL      0.028936
     17 H6         -4.1340    3.3990    3.4670 hc        1 MOL      0.041545
     18 H7         -3.4140    1.7760    3.3390 hc        1 MOL      0.041545
     19 N2         -2.2170    4.5120    0.5100 n         1 MOL     -0.512578
     20 C7         -2.7090    5.5490   -0.3790 c3        1 MOL      0.405423
     21 C8         -3.5980    5.0670   -1.5450 c         1 MOL      0.399128
     22 O5         -3.8990    5.8090   -2.4880 o         1 MOL     -0.585272
     23 C9         -1.5130    6.4460   -0.8240 c3        1 MOL     -0.322079
     24 H8         -1.8890    3.6170    0.1760 hn        1 MOL      0.314876
     25 H9         -3.3470    6.2520    0.1590 h1        1 MOL      0.024347
     26 H10        -0.7480    6.6870   -0.0930 hc        1 MOL      0.067039
     27 H11        -0.9000    6.0290   -1.6120 hc        1 MOL      0.067039
     28 H12        -1.8780    7.3970   -1.2240 hc        1 MOL      0.067039
     29 N3         -4.2540    3.9080   -1.4550 n         1 MOL     -0.192381
     30 C10        -5.0530    3.3130   -2.5680 c3        1 MOL      0.010314
     31 C11        -6.3360    2.5170   -2.1690 c         1 MOL      0.373644
     32 O6         -7.2080    2.2950   -2.9940 o         1 MOL     -0.545105
     33 C12        -4.0980    2.4750   -3.4100 c3        1 MOL     -0.054895
     34 C13        -3.3660    1.4740   -2.6300 c         1 MOL      0.584711
     35 O7         -2.1230    1.5820   -2.3960 o         1 MOL     -0.682466
     36 O8         -3.9830    0.5150   -2.0920 o         1 MOL     -0.682466
     37 H13        -4.2280    3.4780   -0.5370 hn        1 MOL      0.101531
     38 H14        -5.4340    4.0410   -3.2900 h1        1 MOL      0.079114
     39 H15        -3.3310    3.1310   -3.8320 hc        1 MOL      0.030049
     40 H16        -4.6360    2.0040   -4.2300 hc        1 MOL      0.030049
     41 N4         -6.3200    1.9200   -0.9930 n         1 MOL     -0.104150
     42 C14        -7.4740    1.1630   -0.5560 c3        1 MOL     -0.099081
     43 C15        -7.5430   -0.3020   -0.9510 c         1 MOL      0.442406
     44 O9         -8.6180   -0.8620   -0.9430 o         1 MOL     -0.571811
     45 H17        -5.4930    1.9590   -0.4180 hn        1 MOL      0.135116
     46 H18        -8.4500    1.5850   -0.7680 h1        1 MOL      0.070801
     47 H19        -7.3630    1.1900    0.5320 h1        1 MOL      0.070801
     48 N5         -6.3920   -0.8650   -1.3900 n         1 MOL     -0.166521
     49 C16        -6.2390   -2.1760   -1.9870 c3        1 MOL      0.054952
     50 C17        -6.2870   -3.2850   -0.9270 c         1 MOL      0.439861
     51 O10        -6.3490   -4.4460   -1.2560 o         1 MOL     -0.523397
     52 C18        -5.0770   -2.2820   -2.9080 c3        1 MOL     -0.190245
     53 C19        -3.6950   -2.3090   -2.3410 c         1 MOL      0.790897
     54 N6         -2.7800   -2.3380   -3.2600 n         1 MOL     -0.699381
     55 O11        -3.5550   -2.2000   -1.1320 o         1 MOL     -0.796927
     56 H20        -5.5960   -0.2610   -1.5450 hn        1 MOL      0.198351
     57 H21        -7.1080   -2.3890   -2.6180 h1        1 MOL      0.072968
     58 H22        -5.1010   -1.3330   -3.4450 hc        1 MOL      0.043882
     59 H23        -5.2080   -3.1340   -3.5760 hc        1 MOL      0.043882
     60 H24        -3.0500   -2.2100   -4.2320 hn        1 MOL      0.338032
     61 H25        -1.8030   -2.2010   -3.0410 hn        1 MOL      0.338032
     62 N7         -6.1900   -2.8680    0.3630 n         1 MOL     -0.340308
     63 C20        -6.1660   -3.8090    1.4680 c3        1 MOL     -0.243969
     64 C21        -4.7760   -4.3700    1.8630 c         1 MOL      0.598438
     65 O12        -4.6540   -4.8680    2.9710 o         1 MOL     -0.595206
     66 H26        -5.9850   -1.8830    0.4570 hn        1 MOL      0.265775
     67 H27        -6.8490   -4.6450    1.3620 h1        1 MOL      0.125789
     68 H28        -6.5050   -3.2630    2.3440 h1        1 MOL      0.125789
     69 N8         -3.7510   -4.1980    0.9980 n         1 MOL     -0.382390
     70 C22        -2.3720   -4.7390    1.3150 c3        1 MOL     -0.105511
     71 C23        -1.3240   -3.6710    1.3830 c         1 MOL      0.671705
     72 O13        -1.3920   -2.6010    0.7720 o         1 MOL     -0.530540
     73 C24        -2.0450   -5.8030    0.3180 c3        1 MOL      0.470278
     74 C25        -3.0400   -6.9800    0.2820 c3        1 MOL     -0.244574
     75 O14        -2.0160   -5.3390   -1.0440 oh        1 MOL     -0.622977
     76 H29        -3.7850   -3.3950    0.3830 hn        1 MOL      0.362028
     77 H30        -2.3890   -5.1820    2.3050 h1        1 MOL      0.070341
     78 H31        -1.1110   -6.1970    0.7190 h1        1 MOL     -0.052168
     79 H32        -2.0480   -4.3760   -0.9980 ho        1 MOL      0.364054
     80 H33        -4.0650   -6.6080    0.3160 hc        1 MOL      0.055641
     81 H34        -2.8540   -7.6760   -0.5380 hc        1 MOL      0.055641
     82 H35        -2.8350   -7.6210    1.1390 hc        1 MOL      0.055641
     83 N9         -0.2310   -3.9810    2.1900 n         1 MOL     -0.740647
     84 C26         0.9560   -3.0940    2.0020 c3        1 MOL      0.035692
     85 C27         1.6430   -3.2780    0.6560 c         1 MOL      0.494061
     86 O15         1.9950   -4.4050    0.3410 o         1 MOL     -0.570260
     87 C28         2.0830   -3.2430    3.1740 c3        1 MOL      0.284785
     88 C29         1.5360   -3.6640    4.5600 c3        1 MOL     -0.100635
     89 C30         2.9130   -1.8840    3.2270 c3        1 MOL     -0.160097
     90 C31         2.6310   -3.8280    5.6290 c3        1 MOL     -0.060114
     91 H36        -0.1760   -4.9130    2.5630 hn        1 MOL      0.360933
     92 H37         0.5450   -2.0920    2.0440 h1        1 MOL      0.104907
     93 H38         2.8030   -3.9950    2.8670 hc        1 MOL     -0.039839
     94 H39         1.0700   -4.6330    4.4230 hc        1 MOL      0.020686
     95 H40         0.8120   -2.9170    4.8870 hc        1 MOL      0.020686
     96 H41         3.4780   -1.7960    2.2950 hc        1 MOL      0.010574
     97 H42         2.2590   -1.0330    3.3820 hc        1 MOL      0.010574
     98 H43         3.7010   -2.0480    3.9640 hc        1 MOL      0.010574
     99 H44         2.1740   -4.2340    6.5350 hc        1 MOL      0.014608
    100 H45         3.4250   -4.4950    5.2930 hc        1 MOL      0.014608
    101 H46         3.1180   -2.9000    5.9200 hc        1 MOL      0.014608
    102 N10         1.8140   -2.1710   -0.1070 n         1 MOL     -0.264409
    103 C32         2.6160   -1.9760   -1.3330 c3        1 MOL      0.074066
    104 C33         3.9380   -1.2260   -1.0700 c         1 MOL      0.255798
    105 O16         4.0980   -0.5480   -0.0280 o         1 MOL     -0.219463
    106 C34         1.8860   -1.2030   -2.4500 c3        1 MOL     -0.205016
    107 C35         0.3830   -1.4710   -2.7300 c         1 MOL      0.615669
    108 O17        -0.4480   -1.0310   -1.8870 o         1 MOL     -0.645355
    109 O18         0.1050   -1.8800   -3.9040 o         1 MOL     -0.645355
    110 H47         1.4700   -1.3200    0.3050 hn        1 MOL      0.202746
    111 H48         2.8220   -2.9910   -1.6750 h1        1 MOL      0.066086
    112 H49         2.4400   -1.2900   -3.3930 hc        1 MOL      0.072186
    113 H50         1.8690   -0.1400   -2.2000 hc        1 MOL      0.072186
    114 N11         5.0500   -1.5070   -1.8200 n         1 MOL     -0.437926
    115 C36         6.4380   -1.0700   -1.5390 c3        1 MOL      0.155149
    116 C37         6.6790    0.3580   -1.0080 c         1 MOL      0.429417
    117 O19         7.1090    0.4390    0.1470 o         1 MOL     -0.548687
    118 C38         7.3260   -1.4330   -2.7940 c3        1 MOL     -0.096628
    119 C39         8.8150   -1.6180   -2.6070 ca        1 MOL      0.076526
    120 C40         9.2070   -2.4220   -1.5340 ca        1 MOL     -0.189304
    121 C41         9.7020   -0.8010   -3.3940 ca        1 MOL     -0.189304
    122 C42        10.6100   -2.4560   -1.2730 ca        1 MOL     -0.113840
    123 C43        11.1120   -0.8710   -3.0800 ca        1 MOL     -0.113840
    124 C44        11.4940   -1.6660   -2.0020 ca        1 MOL     -0.077479
    125 H51         4.9930   -2.2170   -2.5340 hn        1 MOL      0.276074
    126 H52         6.7070   -1.7880   -0.7620 h1        1 MOL      0.074779
    127 H53         7.1270   -0.6980   -3.5750 hc        1 MOL      0.037661
    128 H54         6.9770   -2.3790   -3.2130 hc        1 MOL      0.037661
    129 H55         8.5320   -3.0490   -0.9680 ha        1 MOL      0.139931
    130 H56         9.2730   -0.0810   -4.0620 ha        1 MOL      0.139931
    131 H57        11.0200   -3.1440   -0.5380 ha        1 MOL      0.114064
    132 H58        11.8070   -0.2260   -3.5930 ha        1 MOL      0.114064
    133 H59        12.5500   -1.7870   -1.8090 ha        1 MOL      0.081506
    134 N12         6.1800    1.4370   -1.6380 n         1 MOL     -0.101294
    135 C45         6.3780    2.8080   -1.0990 c3        1 MOL     -0.093714
    136 C46         5.6080    3.0720    0.2050 c         1 MOL      0.404686
    137 O20         5.8540    4.0930    0.9280 o         1 MOL     -0.550139
    138 C47         6.0030    3.8480   -2.2330 c3        1 MOL     -0.164135
    139 C48         5.0100    2.9260   -3.0370 c3        1 MOL      0.102660
    140 C49         5.5900    1.5140   -2.9850 c3        1 MOL     -0.034455
    141 H60         7.4360    2.8690   -0.8480 h1        1 MOL      0.105143
    142 H61         5.6110    4.8050   -1.8770 hc        1 MOL      0.081090
    143 H62         6.8350    4.0000   -2.9220 hc        1 MOL      0.081090
    144 H63         4.0090    3.0070   -2.6250 hc        1 MOL      0.001495
    145 H64         5.0240    3.2000   -4.0910 hc        1 MOL      0.001495
    146 H65         4.8330    0.7820   -3.2590 h1        1 MOL      0.025806
    147 H66         6.4160    1.3670   -3.6870 h1        1 MOL      0.025806
    148 N13         4.6750    2.2410    0.6590 n         1 MOL     -0.107110
    149 C50         4.0570    2.2400    1.9390 c3        1 MOL     -0.112395
    150 C51         4.8920    1.4670    2.9310 c         1 MOL      0.466097
    151 O21         4.8860    1.9100    4.0640 o         1 MOL     -0.551288
    152 C52         2.6460    1.7440    1.7880 c3        1 MOL      0.132022
    153 C53         1.8930    2.2000    0.5730 c3        1 MOL     -0.312375
    154 C54         0.4540    1.6170    0.6520 c         1 MOL      0.784641
    155 O22        -0.5230    2.1550    0.0650 o         1 MOL     -0.796913
    156 O23         0.1680    0.4010    0.9580 o         1 MOL     -0.796913
    157 H67         4.3920    1.4360    0.1200 hn        1 MOL      0.101186
    158 H68         3.8720    3.2650    2.2880 h1        1 MOL      0.107696
    159 H69         2.0360    2.0750    2.6280 hc        1 MOL      0.004411
    160 H70         2.7490    0.6590    1.7120 hc        1 MOL      0.004411
    161 H71         2.2650    1.8600   -0.3980 hc        1 MOL      0.121853
    162 H72         1.8140    3.2840    0.6200 hc        1 MOL      0.121853
    163 N14         5.5870    0.3300    2.6170 n         1 MOL     -0.037334
    164 C55         6.4630   -0.3200    3.5870 c3        1 MOL     -0.301744
    165 H73         7.4510    0.1390    3.5490 h1        1 MOL      0.100872
    166 H74         6.0470   -0.2040    4.5880 h1        1 MOL      0.100872
    167 H75         6.5470   -1.3810    3.3490 h1        1 MOL      0.100872
    168 H76         5.5240   -0.0730    1.6950 hn        1 MOL      0.109718
    169 Ca1        -2.0640    0.0050   -0.3750 Ca        1 MOL      1.769793
    170 O24        -3.5650   -0.6570    1.8810 oh        1 MOL     -0.941912
    171 H77        -4.4210   -0.5580    2.3000 ho        1 MOL      0.448775
    172 H78        -2.9340   -0.4870    2.5760 ho        1 MOL      0.448775
@<TRIPOS>BOND
     1    1    2 1   
     2    1    4 1   
     3    1    5 1   
     4    1    6 1   
     5    2    3 2   
     6    2    7 1   
     7    7    8 1   
     8    7   15 1   
     9    8    9 1   
    10    8   11 1   
    11    8   16 1   
    12    9   10 2   
    13    9   19 1   
    14   11   12 1   
    15   11   17 1   
    16   11   18 1   
    17   12   13 1   
    18   12   14 1   
    19   19   20 1   
    20   19   24 1   
    21   20   21 1   
    22   20   23 1   
    23   20   25 1   
    24   21   22 2   
    25   21   29 1   
    26   23   26 1   
    27   23   27 1   
    28   23   28 1   
    29   29   30 1   
    30   29   37 1   
    31   30   31 1   
    32   30   33 1   
    33   30   38 1   
    34   31   32 2   
    35   31   41 1   
    36   33   34 1   
    37   33   39 1   
    38   33   40 1   
    39   34   35 1   
    40   34   36 1   
    41   41   42 1   
    42   41   45 1   
    43   42   43 1   
    44   42   46 1   
    45   42   47 1   
    46   43   44 2   
    47   43   48 1   
    48   48   49 1   
    49   48   56 1   
    50   49   50 1   
    51   49   52 1   
    52   49   57 1   
    53   50   51 2   
    54   50   62 1   
    55   52   53 1   
    56   52   58 1   
    57   52   59 1   
    58   53   54 1   
    59   53   55 2   
    60   54   60 1   
    61   54   61 1   
    62   62   63 1   
    63   62   66 1   
    64   63   64 1   
    65   63   67 1   
    66   63   68 1   
    67   64   65 2   
    68   64   69 1   
    69   69   70 1   
    70   69   76 1   
    71   70   71 1   
    72   70   73 1   
    73   70   77 1   
    74   71   72 2   
    75   71   83 1   
    76   73   74 1   
    77   73   75 1   
    78   73   78 1   
    79   74   80 1   
    80   74   81 1   
    81   74   82 1   
    82   75   79 1   
    83   83   84 1   
    84   83   91 1   
    85   84   85 1   
    86   84   87 1   
    87   84   92 1   
    88   85   86 2   
    89   85  102 1   
    90   87   88 1   
    91   87   89 1   
    92   87   93 1   
    93   88   90 1   
    94   88   94 1   
    95   88   95 1   
    96   89   96 1   
    97   89   97 1   
    98   89   98 1   
    99   90   99 1   
   100   90  100 1   
   101   90  101 1   
   102  102  103 1   
   103  102  110 1   
   104  103  104 1   
   105  103  106 1   
   106  103  111 1   
   107  104  105 2   
   108  104  114 1   
   109  106  107 1   
   110  106  112 1   
   111  106  113 1   
   112  107  108 1   
   113  107  109 1   
   114  114  115 1   
   115  114  125 1   
   116  115  116 1   
   117  115  118 1   
   118  115  126 1   
   119  116  117 2   
   120  116  134 1   
   121  118  119 1   
   122  118  127 1   
   123  118  128 1   
   124  119  120 ar  
   125  119  121 ar  
   126  120  122 ar  
   127  120  129 1   
   128  121  123 ar  
   129  121  130 1   
   130  122  124 ar  
   131  122  131 1   
   132  123  124 ar  
   133  123  132 1   
   134  124  133 1   
   135  134  135 1   
   136  134  140 1   
   137  135  136 1   
   138  135  138 1   
   139  135  141 1   
   140  136  137 2   
   141  136  148 1   
   142  138  139 1   
   143  138  142 1   
   144  138  143 1   
   145  139  140 1   
   146  139  144 1   
   147  139  145 1   
   148  140  146 1   
   149  140  147 1   
   150  148  149 1   
   151  148  157 1   
   152  149  150 1   
   153  149  152 1   
   154  149  158 1   
   155  150  151 2   
   156  150  163 1   
   157  152  153 1   
   158  152  159 1   
   159  152  160 1   
   160  153  154 1   
   161  153  161 1   
   162  153  162 1   
   163  154  155 1   
   164  154  156 1   
   165  163  164 1   
   166  163  168 1   
   167  164  165 1   
   168  164  166 1   
   169  164  167 1   
   170  170  171 1   
   171  170  172 1   
@<TRIPOS>SUBSTRUCTURE
     1 MOL         1 TEMP              0 ****  ****    0 ROOT
