@<TRIPOS>MOLECULE
MOL
  186   183     1     0     0
SMALL
resp


@<TRIPOS>ATOM
      1 C1          0.1860   -1.6150    6.0000 c3        1 MOL     -0.277612
      2 C2          0.5350   -1.5170    4.5490 c         1 MOL      0.709025
      3 O1         -0.2050   -1.8580    3.6460 o         1 MOL     -0.560065
      4 H1         -0.8970   -1.5770    6.1170 hc        1 MOL      0.060262
      5 H2          0.5620   -2.5560    6.4020 hc        1 MOL      0.060262
      6 H3          0.6380   -0.7830    6.5400 hc        1 MOL      0.060262
      7 N1          1.7690   -0.9910    4.3320 n         1 MOL     -0.554288
      8 C3          2.4430   -1.1230    3.0280 c3        1 MOL      0.115335
      9 C4          2.9340   -2.5830    2.9070 c         1 MOL      0.574929
     10 O2          3.7070   -3.0350    3.7830 o         1 MOL     -0.624568
     11 C5          3.5940   -0.0810    2.9080 c3        1 MOL     -0.097084
     12 C6          4.3620   -0.1890    1.5580 c         1 MOL      0.614197
     13 O3          5.4320    0.4710    1.4070 o         1 MOL     -0.640932
     14 O4          3.9570   -0.9960    0.6470 o         1 MOL     -0.640932
     15 H4          2.3680   -0.7100    5.0950 hn        1 MOL      0.294761
     16 H5          1.6780   -0.8610    2.2980 h1        1 MOL      0.041354
     17 H6          4.3580   -0.2100    3.6700 hc        1 MOL      0.021223
     18 H7          3.2450    0.9560    2.9530 hc        1 MOL      0.021223
     19 N2          2.2760   -3.3270    2.0340 n         1 MOL      0.032331
     20 C7          2.4440   -4.7760    1.8590 c3        1 MOL     -0.468578
     21 C8          3.1110   -5.2920    0.5210 c         1 MOL      0.393944
     22 O5          3.3880   -6.4910    0.3910 o         1 MOL     -0.540118
     23 C9          1.1400   -5.4430    2.1420 c3        1 MOL      0.511119
     24 C10         0.0840   -5.2120    1.0350 c3        1 MOL     -0.006573
     25 C11         0.6870   -5.1850    3.5780 c3        1 MOL     -0.458387
     26 C12        -1.2970   -5.8450    1.3980 c3        1 MOL     -0.236496
     27 H8          1.9430   -2.7420    1.2770 hn        1 MOL      0.007539
     28 H9          3.1340   -5.0640    2.6500 h1        1 MOL      0.169603
     29 H10         1.2970   -6.5140    2.1930 hc        1 MOL     -0.091330
     30 H11         0.4380   -5.7330    0.1400 hc        1 MOL      0.038003
     31 H12        -0.0330   -4.1320    0.9730 hc        1 MOL      0.038003
     32 H13         1.5220   -5.3200    4.2610 hc        1 MOL      0.090355
     33 H14         0.3630   -4.1520    3.7470 hc        1 MOL      0.090355
     34 H15        -0.1460   -5.7950    3.9100 hc        1 MOL      0.090355
     35 H16        -1.2010   -6.8850    1.7110 hc        1 MOL      0.049958
     36 H17        -1.7500   -5.2970    2.2230 hc        1 MOL      0.049958
     37 H18        -1.9210   -5.8030    0.5160 hc        1 MOL      0.049958
     38 N3          3.3380   -4.5110   -0.5020 n         1 MOL     -0.201709
     39 C13         4.3500   -4.8390   -1.4530 c3        1 MOL      0.131989
     40 C14         5.7080   -4.1170   -1.1510 c         1 MOL      0.344277
     41 O6          6.8010   -4.5300   -1.5380 o         1 MOL     -0.559890
     42 C15         3.9050   -4.3970   -2.8490 c3        1 MOL     -0.174819
     43 C16         3.3090   -3.0270   -3.0760 c         1 MOL      0.734682
     44 O7          2.4400   -2.8940   -4.0120 o         1 MOL     -0.707482
     45 O8          3.5960   -2.1010   -2.2850 o         1 MOL     -0.707482
     46 H19         2.9370   -3.5810   -0.4960 hn        1 MOL      0.203833
     47 H20         4.5660   -5.8990   -1.5720 h1        1 MOL      0.053214
     48 H21         3.1560   -5.1280   -3.1800 hc        1 MOL      0.035536
     49 H22         4.7130   -4.4440   -3.5740 hc        1 MOL      0.035536
     50 N4          5.6600   -3.0140   -0.3890 n         1 MOL      0.125099
     51 C17         6.8310   -2.3070    0.0250 c3        1 MOL     -0.411656
     52 C18         7.3580   -1.4000   -1.0560 c         1 MOL      0.861592
     53 O9          8.1860   -1.7330   -1.8820 o         1 MOL     -0.591974
     54 H23         4.7960   -2.6640   -0.0100 hn        1 MOL      0.038342
     55 H24         7.6690   -2.9250    0.3510 h1        1 MOL      0.103926
     56 H25         6.6470   -1.6560    0.8830 h1        1 MOL      0.103926
     57 N5          6.9190   -0.1070   -0.9750 n         1 MOL     -0.851290
     58 C19         7.2610    1.0080   -1.8500 c3        1 MOL      0.247338
     59 C20         7.3710    2.3810   -1.0980 c         1 MOL      0.368203
     60 O10         7.7280    3.4390   -1.7320 o         1 MOL     -0.573719
     61 C21         6.2220    1.1070   -2.9840 c3        1 MOL     -0.312892
     62 C22         4.8090    1.1970   -2.5070 c         1 MOL      0.955692
     63 O11         4.5250    1.4800   -1.2950 o         1 MOL     -0.825400
     64 O12         3.8140    1.0410   -3.2080 o         1 MOL     -0.825400
     65 H26         6.2880    0.0680   -0.2000 hn        1 MOL      0.353686
     66 H27         8.1600    0.8730   -2.4470 h1        1 MOL      0.056371
     67 H28         6.3580    0.1660   -3.5120 hc        1 MOL      0.075744
     68 H29         6.4250    1.9780   -3.6060 hc        1 MOL      0.075744
     69 N6          7.1330    2.2920    0.2100 n         1 MOL     -0.275244
     70 C23         7.1480    3.4600    1.1040 c3        1 MOL     -0.131312
     71 C24         5.7810    4.1100    1.4060 c         1 MOL      0.457122
     72 O13         5.6690    5.0790    2.1120 o         1 MOL     -0.559470
     73 H30         6.8470    1.4130    0.6150 hn        1 MOL      0.275129
     74 H31         7.7760    4.2380    0.6530 h1        1 MOL      0.089055
     75 H32         7.6180    3.1890    2.0510 h1        1 MOL      0.089055
     76 N7          4.7320    3.6420    0.7860 n         1 MOL     -0.242795
     77 C25         3.3630    4.1710    0.6750 c3        1 MOL     -0.008236
     78 C26         2.2050    3.1920    0.9720 c         1 MOL      0.615176
     79 O14         2.2580    1.9780    0.7140 o         1 MOL     -0.611656
     80 C27         3.0770    4.9600   -0.6500 c3        1 MOL      0.005967
     81 C28         4.2910    5.7680   -1.2420 c3        1 MOL     -0.243455
     82 C29         4.8770    6.7730   -0.2600 c         1 MOL      0.619910
     83 N8          6.0540    7.2080   -0.5210 n         1 MOL     -0.801749
     84 O15         4.2770    7.1910    0.6930 o         1 MOL     -0.533674
     85 H33         4.8600    2.8060    0.2400 hn        1 MOL      0.320967
     86 H34         3.1860    4.8030    1.5460 h1        1 MOL      0.061669
     87 H35         2.2740    5.6460   -0.3910 hc        1 MOL      0.019282
     88 H36         2.7110    4.3240   -1.4520 hc        1 MOL      0.019282
     89 H37         3.9620    6.2090   -2.1800 hc        1 MOL      0.082219
     90 H38         5.0450    5.0490   -1.5730 hc        1 MOL      0.082219
     91 H39         6.5040    6.9480   -1.3840 hn        1 MOL      0.364192
     92 H40         6.5530    7.7100    0.2050 hn        1 MOL      0.364192
     93 N9          1.0870    3.7000    1.4430 n         1 MOL     -0.509241
     94 C30        -0.1730    2.9260    1.6210 c3        1 MOL      0.005262
     95 C31        -1.3120    3.3550    0.7270 c         1 MOL      0.499857
     96 O16        -1.7890    4.4910    0.8040 o         1 MOL     -0.589419
     97 C32        -0.6000    2.9000    3.1550 c3        1 MOL      0.318315
     98 C33        -1.5820    1.7650    3.4090 c3        1 MOL     -0.215985
     99 C34         0.5730    2.6860    4.1190 c3        1 MOL     -0.215985
    100 H41         1.0550    4.6650    1.7240 hn        1 MOL      0.296552
    101 H42        -0.0160    1.8880    1.3190 h1        1 MOL      0.153372
    102 H43        -1.1420    3.8270    3.3400 hc        1 MOL     -0.060443
    103 H44        -2.1620    2.0040    4.2980 hc        1 MOL      0.031258
    104 H45        -2.3040    1.6480    2.6080 hc        1 MOL      0.031258
    105 H46        -0.9490    0.9060    3.6470 hc        1 MOL      0.031258
    106 H47         1.1010    1.7800    3.8130 hc        1 MOL      0.031258
    107 H48         1.1770    3.5880    4.2230 hc        1 MOL      0.031258
    108 H49         0.1400    2.5910    5.1250 hc        1 MOL      0.031258
    109 N10        -1.8130    2.4340   -0.0790 n         1 MOL     -0.356528
    110 C35        -2.9100    2.6020   -0.9940 c3        1 MOL      0.210502
    111 C36        -4.1800    2.0880   -0.3750 c         1 MOL      0.409434
    112 O17        -4.1460    1.2010    0.4820 o         1 MOL     -0.357724
    113 C37        -2.4990    1.9960   -2.3320 c3        1 MOL     -0.182242
    114 C38        -3.6560    2.0240   -3.2620 c         1 MOL      0.594389
    115 N11        -4.1350    3.1780   -3.6200 n         1 MOL     -0.713395
    116 O18        -4.2310    0.9690   -3.5140 o         1 MOL     -0.504057
    117 H50        -1.4440    1.4940   -0.1330 hn        1 MOL      0.173495
    118 H51        -3.0040    3.6860   -1.1390 h1        1 MOL      0.009372
    119 H52        -2.1490    0.9690   -2.2210 hc        1 MOL      0.082597
    120 H53        -1.7120    2.5120   -2.8780 hc        1 MOL      0.082597
    121 H54        -3.8000    4.0810   -3.3380 hn        1 MOL      0.336385
    122 H55        -4.9910    3.1060   -4.1650 hn        1 MOL      0.336385
    123 N12        -5.3380    2.5200   -0.8980 n         1 MOL     -0.628802
    124 C39        -6.5870    2.0800   -0.3060 c3        1 MOL      0.409289
    125 C40        -6.9050    0.5940   -0.3650 c         1 MOL      0.769822
    126 O19        -7.4330    0.0660    0.5980 o         1 MOL     -0.568214
    127 C41        -7.6530    2.8470   -1.0360 c3        1 MOL     -0.223442
    128 C42        -8.9490    2.5410   -0.3520 ca        1 MOL      0.116806
    129 C43        -9.2820    3.0370    0.9240 ca        1 MOL     -0.275904
    130 C44        -9.8900    1.7480   -1.0590 ca        1 MOL     -0.275904
    131 C45       -10.5240    2.6400    1.5270 ca        1 MOL     -0.164528
    132 C46       -11.0870    1.3440   -0.4620 ca        1 MOL     -0.164528
    133 C47       -11.4300    1.8580    0.8230 ca        1 MOL      0.276488
    134 O20       -12.6590    1.6350    1.4350 oh        1 MOL     -0.535020
    135 H56        -5.3180    3.0970   -1.7200 hn        1 MOL      0.263546
    136 H57        -6.7300    2.3280    0.7490 h1        1 MOL     -0.016608
    137 H58        -7.6620    2.5330   -2.0740 hc        1 MOL      0.056903
    138 H59        -7.3450    3.8810   -0.9120 hc        1 MOL      0.056903
    139 H60        -8.5820    3.6590    1.4670 ha        1 MOL      0.164477
    140 H61        -9.5330    1.3520   -2.0020 ha        1 MOL      0.164477
    141 H62       -10.7650    2.9100    2.5440 ha        1 MOL      0.130100
    142 H63       -11.7960    0.6840   -0.9270 ha        1 MOL      0.130100
    143 H64       -13.2530    1.0670    0.9510 ho        1 MOL      0.379872
    144 N13        -6.4750   -0.0960   -1.4710 n         1 MOL     -0.696121
    145 C48        -6.7220   -1.5830   -1.6640 c3        1 MOL      0.061181
    146 C49        -5.9640   -2.3380   -0.5740 c         1 MOL      0.316755
    147 O21        -6.3520   -3.4200   -0.1130 o         1 MOL     -0.502711
    148 C50        -6.3220   -2.0300   -3.0460 c3        1 MOL      0.033205
    149 C51        -4.8620   -2.3100   -3.2810 c3        1 MOL     -0.043509
    150 C52        -4.6630   -3.1090   -4.4890 c         1 MOL      0.719293
    151 O22        -3.9750   -2.6380   -5.4030 o         1 MOL     -0.751703
    152 O23        -5.0970   -4.2650   -4.6010 o         1 MOL     -0.751703
    153 H65        -5.8280    0.4550   -2.0030 hn        1 MOL      0.298033
    154 H66        -7.7850   -1.7500   -1.4650 h1        1 MOL      0.072423
    155 H67        -6.7160   -1.3190   -3.7750 hc        1 MOL     -0.010980
    156 H68        -6.8240   -2.9650   -3.3050 hc        1 MOL     -0.010980
    157 H69        -4.3980   -2.8930   -2.4780 hc        1 MOL     -0.021034
    158 H70        -4.3220   -1.3700   -3.3640 hc        1 MOL     -0.021034
    159 N14        -4.8450   -1.7470   -0.0920 n         1 MOL     -0.026088
    160 C53        -3.9790   -2.2910    0.9430 c3        1 MOL     -0.206722
    161 C54        -4.5430   -2.0520    2.3670 c         1 MOL      0.435610
    162 O24        -4.3550   -2.8660    3.2530 o         1 MOL     -0.565933
    163 C55        -2.5200   -1.7890    0.9970 c3        1 MOL      0.385779
    164 C56        -1.8430   -1.7940   -0.3770 c3        1 MOL     -0.281790
    165 C57        -0.4580   -1.2550   -0.2860 c         1 MOL      0.781414
    166 O25         0.5380   -2.0350   -0.4630 o         1 MOL     -0.754481
    167 O26        -0.1450   -0.0510   -0.0420 o         1 MOL     -0.754481
    168 H71        -4.5160   -0.8960   -0.5300 hn        1 MOL      0.184078
    169 H72        -3.9490   -3.3800    0.8320 h1        1 MOL      0.100203
    170 H73        -1.9630   -2.5160    1.5900 hc        1 MOL     -0.049447
    171 H74        -2.5340   -0.8510    1.5610 hc        1 MOL     -0.049447
    172 H75        -2.3620   -1.2010   -1.1250 hc        1 MOL      0.079337
    173 H76        -1.7560   -2.8260   -0.7420 hc        1 MOL      0.079337
    174 N15        -5.1600   -0.9320    2.6170 n         1 MOL      0.027191
    175 C58        -5.8150   -0.4240    3.8170 c3        1 MOL     -0.352043
    176 H77        -6.8960   -0.4980    3.6990 h1        1 MOL      0.115303
    177 H78        -5.5030   -1.0130    4.6790 h1        1 MOL      0.115303
    178 H79        -5.5380    0.6200    3.9690 h1        1 MOL      0.115303
    179 H80        -5.2410   -0.2770    1.8540 hn        1 MOL     -0.009819
    180 Ca1         2.3130   -0.0470   -1.1230 Ca        1 MOL      1.763127
    181 O27         0.8680   -0.8420   -3.2840 oh        1 MOL     -0.848158
    182 H81         0.1310   -0.7580   -3.8940 ho        1 MOL      0.402592
    183 H82         1.4200   -1.5250   -3.6680 ho        1 MOL      0.402592
    184 O28         1.1390    1.8050   -2.6990 oh        1 MOL     -0.848158
    185 H83         0.7220    1.3710   -3.4520 ho        1 MOL      0.402592
    186 H84         1.7320    2.4430   -3.0960 ho        1 MOL      0.402592
@<TRIPOS>BOND
     1    1    2 1   
     2    1    4 1   
     3    1    5 1   
     4    1    6 1   
     5    2    3 2   
     6    2    7 1   
     7    7    8 1   
     8    7   15 1   
     9    8    9 1   
    10    8   11 1   
    11    8   16 1   
    12    9   10 2   
    13    9   19 1   
    14   11   12 1   
    15   11   17 1   
    16   11   18 1   
    17   12   13 1   
    18   12   14 1   
    19   19   20 1   
    20   19   27 1   
    21   20   21 1   
    22   20   23 1   
    23   20   28 1   
    24   21   22 2   
    25   21   38 1   
    26   23   24 1   
    27   23   25 1   
    28   23   29 1   
    29   24   26 1   
    30   24   30 1   
    31   24   31 1   
    32   25   32 1   
    33   25   33 1   
    34   25   34 1   
    35   26   35 1   
    36   26   36 1   
    37   26   37 1   
    38   38   39 1   
    39   38   46 1   
    40   39   40 1   
    41   39   42 1   
    42   39   47 1   
    43   40   41 2   
    44   40   50 1   
    45   42   43 1   
    46   42   48 1   
    47   42   49 1   
    48   43   44 1   
    49   43   45 1   
    50   50   51 1   
    51   50   54 1   
    52   51   52 1   
    53   51   55 1   
    54   51   56 1   
    55   52   53 2   
    56   52   57 1   
    57   57   58 1   
    58   57   65 1   
    59   58   59 1   
    60   58   61 1   
    61   58   66 1   
    62   59   60 2   
    63   59   69 1   
    64   61   62 1   
    65   61   67 1   
    66   61   68 1   
    67   62   63 1   
    68   62   64 1   
    69   69   70 1   
    70   69   73 1   
    71   70   71 1   
    72   70   74 1   
    73   70   75 1   
    74   71   72 2   
    75   71   76 1   
    76   76   77 1   
    77   76   85 1   
    78   77   78 1   
    79   77   80 1   
    80   77   86 1   
    81   78   79 2   
    82   78   93 1   
    83   80   81 1   
    84   80   87 1   
    85   80   88 1   
    86   81   82 1   
    87   81   89 1   
    88   81   90 1   
    89   82   83 1   
    90   82   84 2   
    91   83   91 1   
    92   83   92 1   
    93   93   94 1   
    94   93  100 1   
    95   94   95 1   
    96   94   97 1   
    97   94  101 1   
    98   95   96 2   
    99   95  109 1   
   100   97   98 1   
   101   97   99 1   
   102   97  102 1   
   103   98  103 1   
   104   98  104 1   
   105   98  105 1   
   106   99  106 1   
   107   99  107 1   
   108   99  108 1   
   109  109  110 1   
   110  109  117 1   
   111  110  111 1   
   112  110  113 1   
   113  110  118 1   
   114  111  112 2   
   115  111  123 1   
   116  113  114 1   
   117  113  119 1   
   118  113  120 1   
   119  114  115 1   
   120  114  116 2   
   121  115  121 1   
   122  115  122 1   
   123  123  124 1   
   124  123  135 1   
   125  124  125 1   
   126  124  127 1   
   127  124  136 1   
   128  125  126 2   
   129  125  144 1   
   130  127  128 1   
   131  127  137 1   
   132  127  138 1   
   133  128  129 ar  
   134  128  130 ar  
   135  129  131 ar  
   136  129  139 1   
   137  130  132 ar  
   138  130  140 1   
   139  131  133 ar  
   140  131  141 1   
   141  132  133 ar  
   142  132  142 1   
   143  133  134 1   
   144  134  143 1   
   145  144  145 1   
   146  144  153 1   
   147  145  146 1   
   148  145  148 1   
   149  145  154 1   
   150  146  147 2   
   151  146  159 1   
   152  148  149 1   
   153  148  155 1   
   154  148  156 1   
   155  149  150 1   
   156  149  157 1   
   157  149  158 1   
   158  150  151 1   
   159  150  152 1   
   160  159  160 1   
   161  159  168 1   
   162  160  161 1   
   163  160  163 1   
   164  160  169 1   
   165  161  162 2   
   166  161  174 1   
   167  163  164 1   
   168  163  170 1   
   169  163  171 1   
   170  164  165 1   
   171  164  172 1   
   172  164  173 1   
   173  165  166 1   
   174  165  167 1   
   175  174  175 1   
   176  174  179 1   
   177  175  176 1   
   178  175  177 1   
   179  175  178 1   
   180  181  182 1   
   181  181  183 1   
   182  184  185 1   
   183  184  186 1   
@<TRIPOS>SUBSTRUCTURE
     1 MOL         1 TEMP              0 ****  ****    0 ROOT
