@<TRIPOS>MOLECULE
MOL
  189   185     1     0     0
SMALL
resp


@<TRIPOS>ATOM
      1 C1         -0.1150    3.1340    5.1930 c3        1 MOL     -0.440292
      2 C2         -0.5970    2.6900    3.8130 c         1 MOL      0.846820
      3 O1          0.1630    2.8660    2.8150 o         1 MOL     -0.695180
      4 H1         -0.5410    2.4810    5.9540 hc        1 MOL      0.112932
      5 H2          0.9730    3.0770    5.2340 hc        1 MOL      0.112932
      6 H3         -0.4310    4.1610    5.3760 hc        1 MOL      0.112932
      7 N1         -1.7890    2.1310    3.6200 n         1 MOL     -0.686000
      8 C3         -2.3640    1.7750    2.3690 c3        1 MOL      0.344414
      9 C4         -2.8770    3.0450    1.6540 c         1 MOL      0.412410
     10 O2         -3.7840    3.7060    2.1200 o         1 MOL     -0.587728
     11 C5         -3.5310    0.7210    2.6590 c3        1 MOL     -0.337688
     12 C6         -4.2560    0.2590    1.3510 c         1 MOL      0.694898
     13 O3         -3.6730    0.4270    0.2780 o         1 MOL     -0.615897
     14 O4         -5.3280   -0.3760    1.4890 o         1 MOL     -0.615897
     15 H4         -2.4400    2.0400    4.3860 hn        1 MOL      0.319981
     16 H5         -1.6180    1.2650    1.7570 h1        1 MOL     -0.033157
     17 H6         -4.2310    1.1170    3.3870 hc        1 MOL      0.083396
     18 H7         -3.1480   -0.1730    3.1520 hc        1 MOL      0.083396
     19 N2         -2.2410    3.4570    0.5330 n         1 MOL     -0.008617
     20 C7         -2.5830    4.6510   -0.2180 c3        1 MOL     -0.098183
     21 C8         -3.1010    4.3270   -1.6360 c         1 MOL      0.545444
     22 O5         -3.2080    5.2850   -2.4370 o         1 MOL     -0.580307
     23 C9         -1.4230    5.6710   -0.2040 c3        1 MOL      0.233528
     24 C10        -1.0110    6.2330    1.2170 c3        1 MOL     -0.027227
     25 C11        -2.1250    7.0770    1.8490 c3        1 MOL     -0.373354
     26 C12        -2.5500    8.2670    1.0020 c3        1 MOL      0.152701
     27 N3         -3.7310    8.9710    1.5570 n4        1 MOL     -0.317293
     28 H8         -1.4640    2.9030    0.2020 hn        1 MOL      0.140699
     29 H9         -3.3490    5.1970    0.3210 h1        1 MOL      0.020833
     30 H10        -1.6570    6.5210   -0.8510 hc        1 MOL     -0.049745
     31 H11        -0.5950    5.1970   -0.7250 hc        1 MOL     -0.049745
     32 H12        -0.0450    6.7200    1.1100 hc        1 MOL      0.047350
     33 H13        -0.9710    5.3940    1.9090 hc        1 MOL      0.047350
     34 H14        -1.9190    7.2430    2.9050 hc        1 MOL      0.121939
     35 H15        -2.9670    6.3870    1.9990 hc        1 MOL      0.121939
     36 H16        -2.7200    7.9540   -0.0270 hx        1 MOL      0.062572
     37 H17        -1.6950    8.9360    0.9810 hx        1 MOL      0.062572
     38 H18        -3.5370    9.2480    2.5090 hn        1 MOL      0.313709
     39 H19        -4.0090    9.7520    0.9820 hn        1 MOL      0.313709
     40 H20        -4.4870    8.3410    1.7950 hn        1 MOL      0.313709
     41 N4         -3.4520    3.0900   -1.9600 n         1 MOL     -0.304417
     42 C13        -4.2830    2.8070   -3.1970 c3        1 MOL      0.155590
     43 C14        -5.5520    1.9510   -2.8950 c         1 MOL      0.420305
     44 O6         -6.3940    1.8090   -3.7490 o         1 MOL     -0.514769
     45 C15        -3.4560    2.2200   -4.3200 c3        1 MOL     -0.291140
     46 C16        -2.8300    0.8750   -4.0460 c         1 MOL      0.876161
     47 O7         -2.0820    0.3940   -4.9330 o         1 MOL     -0.712657
     48 O8         -3.1530    0.1450   -3.0640 o         1 MOL     -0.712657
     49 H21        -3.2740    2.2680   -1.3900 hn        1 MOL      0.028601
     50 H22        -4.7140    3.7550   -3.5250 h1        1 MOL      0.057230
     51 H23        -2.6010    2.8840   -4.4620 hc        1 MOL      0.068436
     52 H24        -4.1240    2.1280   -5.1830 hc        1 MOL      0.068436
     53 N5         -5.7570    1.4100   -1.6900 n         1 MOL     -0.349367
     54 C17        -7.0890    0.9220   -1.1950 c3        1 MOL     -0.198604
     55 C18        -7.3160   -0.5030   -1.6070 c         1 MOL      0.534220
     56 O9         -8.4740   -0.8940   -1.6250 o         1 MOL     -0.583570
     57 H25        -4.9690    1.4270   -1.0620 hn        1 MOL      0.237431
     58 H26        -7.8550    1.5980   -1.5880 h1        1 MOL      0.130399
     59 H27        -7.1680    0.9520   -0.1160 h1        1 MOL      0.130399
     60 N6         -6.3260   -1.2700   -1.9900 n         1 MOL     -0.232632
     61 C19        -6.4320   -2.7000   -2.2090 c3        1 MOL     -0.058585
     62 C20        -6.6240   -3.5180   -0.9430 c         1 MOL      0.445777
     63 O10        -7.2010   -4.5870   -0.8640 o         1 MOL     -0.547892
     64 C21        -5.2310   -3.1670   -2.9290 c3        1 MOL     -0.284105
     65 C22        -3.9250   -2.8320   -2.2330 c         1 MOL      0.769426
     66 O11        -2.9000   -2.9890   -2.9090 o         1 MOL     -0.716486
     67 O12        -3.7730   -2.3640   -1.0980 o         1 MOL     -0.716486
     68 H28        -5.4030   -0.8720   -2.0530 hn        1 MOL      0.264085
     69 H29        -7.3250   -2.8780   -2.8110 h1        1 MOL      0.116430
     70 H30        -5.1050   -2.6680   -3.8900 hc        1 MOL      0.102008
     71 H31        -5.1760   -4.2390   -3.0870 hc        1 MOL      0.102008
     72 N7         -6.2860   -2.8510    0.1950 n         1 MOL      0.000495
     73 C23        -6.3750   -3.2650    1.6090 c3        1 MOL     -0.193560
     74 C24        -5.1480   -3.8720    2.1120 c         1 MOL      0.636768
     75 O13        -5.2250   -4.8030    2.8830 o         1 MOL     -0.601152
     76 H32        -5.6130   -2.1170    0.0110 hn        1 MOL     -0.010917
     77 H33        -7.0990   -4.0820    1.6900 h1        1 MOL      0.091590
     78 H34        -6.5780   -2.3980    2.2310 h1        1 MOL      0.091590
     79 N8         -3.9480   -3.5140    1.6740 n         1 MOL     -0.232751
     80 C25        -2.5530   -4.1030    1.9670 c3        1 MOL     -0.161359
     81 C26        -1.5050   -2.9760    1.8740 c         1 MOL      0.688414
     82 O14        -1.7110   -1.9590    1.1960 o         1 MOL     -0.643544
     83 C27        -2.2420   -5.2380    1.0380 c3        1 MOL      0.356631
     84 C28        -3.1650   -6.4570    0.9760 c3        1 MOL     -0.394996
     85 O15        -2.2940   -4.8130   -0.3430 oh        1 MOL     -0.616285
     86 H35        -3.9360   -2.8410    0.9270 hn        1 MOL      0.081915
     87 H36        -2.5920   -4.4790    2.9920 h1        1 MOL      0.095757
     88 H37        -1.2810   -5.6730    1.2950 h1        1 MOL      0.035451
     89 H38        -3.0400   -4.2220   -0.4530 ho        1 MOL      0.423689
     90 H39        -2.7030   -7.2720    0.4040 hc        1 MOL      0.108111
     91 H40        -3.2280   -6.8330    2.0010 hc        1 MOL      0.108111
     92 H41        -4.1710   -6.2680    0.6050 hc        1 MOL      0.108111
     93 N9         -0.3590   -3.2100    2.4280 n         1 MOL     -0.603816
     94 C29         0.8100   -2.2460    2.5060 c3        1 MOL      0.044907
     95 C30         2.0200   -2.7350    1.6340 c         1 MOL      0.601218
     96 O16         2.7780   -3.5740    2.0730 o         1 MOL     -0.548268
     97 C31         1.2810   -1.9700    3.9230 c3        1 MOL      0.247522
     98 C32         0.0650   -1.6780    4.8450 c3        1 MOL      0.213249
     99 C33         2.3750   -1.0160    4.0520 c3        1 MOL     -0.295987
    100 C34         0.4400   -1.7490    6.3500 c3        1 MOL     -0.320563
    101 H42        -0.2530   -4.1040    2.8870 hn        1 MOL      0.300008
    102 H43         0.6330   -1.2480    2.1210 h1        1 MOL      0.121560
    103 H44         1.6740   -2.8880    4.3620 hc        1 MOL     -0.055069
    104 H45        -0.8090   -2.3230    4.7510 hc        1 MOL     -0.044423
    105 H46        -0.2900   -0.6910    4.5590 hc        1 MOL     -0.044423
    106 H47         3.3000   -1.5280    3.7660 hc        1 MOL      0.055227
    107 H48         2.2630   -0.1540    3.3930 hc        1 MOL      0.055227
    108 H49         2.5260   -0.6150    5.0540 hc        1 MOL      0.055227
    109 H50         0.8330   -2.7350    6.5800 hc        1 MOL      0.071429
    110 H51         1.2110   -1.0180    6.6150 hc        1 MOL      0.071429
    111 H52        -0.4620   -1.5280    6.9220 hc        1 MOL      0.071429
    112 N10         2.3160   -2.2120    0.4100 n         1 MOL     -0.392252
    113 C35         3.5590   -2.5530   -0.2390 c3        1 MOL     -0.042908
    114 C36         4.7940   -1.9850    0.4960 c         1 MOL      0.243137
    115 O17         4.7120   -0.9470    1.2380 o         1 MOL     -0.180609
    116 C37         3.5870   -1.9220   -1.6830 c3        1 MOL      0.175702
    117 C38         2.4260   -2.3830   -2.5600 c3        1 MOL     -0.437630
    118 O18         3.3550   -0.5570   -1.5700 oh        1 MOL     -0.473758
    119 H53         1.7000   -1.5640   -0.0490 hn        1 MOL      0.220472
    120 H54         3.7790   -3.6170   -0.3040 h1        1 MOL      0.111807
    121 H55         4.5380   -2.0650   -2.1980 h1        1 MOL      0.059867
    122 H56         2.4830   -0.5670   -1.1790 ho        1 MOL      0.362940
    123 H57         2.3940   -2.0760   -3.6140 hc        1 MOL      0.127126
    124 H58         2.3200   -3.4640   -2.4920 hc        1 MOL      0.127126
    125 H59         1.6130   -1.8580   -2.0490 hc        1 MOL      0.127126
    126 N11         5.9840   -2.5220    0.1150 n         1 MOL     -0.230225
    127 C39         7.2210   -1.8800    0.4990 c3        1 MOL     -0.020988
    128 C40         7.4540   -0.3990    0.0290 c         1 MOL      0.534239
    129 O19         8.1480    0.3570    0.7090 o         1 MOL     -0.513889
    130 C41         8.4450   -2.7220    0.0630 c3        1 MOL      0.390061
    131 C42         9.4360   -2.7670    1.2600 c3        1 MOL     -0.288482
    132 O20         8.0410   -4.0570   -0.1590 oh        1 MOL     -0.600905
    133 H60         5.9830   -3.1530   -0.6800 hn        1 MOL      0.200288
    134 H61         7.1250   -1.8230    1.5820 h1        1 MOL      0.089431
    135 H62         8.8570   -2.1840   -0.7920 h1        1 MOL     -0.113849
    136 H63         8.7870   -4.4210   -0.6420 ho        1 MOL      0.386579
    137 H64         9.0380   -3.0880    2.2220 hc        1 MOL      0.078187
    138 H65        10.2280   -3.4720    1.0180 hc        1 MOL      0.078187
    139 H66         9.7940   -1.7690    1.4800 hc        1 MOL      0.078187
    140 N12         6.8360   -0.0230   -1.0540 n         1 MOL     -0.621565
    141 C43         6.7800    1.3990   -1.4700 c3        1 MOL      0.460772
    142 C44         5.9550    2.2440   -0.4910 c         1 MOL      0.162239
    143 O21         6.3450    3.2730    0.0290 o         1 MOL     -0.482718
    144 C45         6.3820    1.5380   -2.9780 c3        1 MOL     -0.234875
    145 C46         7.4710    1.5930   -4.0340 c3        1 MOL     -0.037539
    146 C47         8.6030    0.5100   -3.8150 c3        1 MOL     -0.035323
    147 C48         9.7170    0.5330   -4.8280 c3        1 MOL     -0.087009
    148 N13        10.6150   -0.6270   -4.7690 n4        1 MOL     -0.184346
    149 H67         6.2560   -0.7360   -1.4520 hn        1 MOL      0.272193
    150 H68         7.7870    1.8170   -1.3490 h1        1 MOL     -0.009329
    151 H69         5.8260    2.4550   -3.1330 hc        1 MOL      0.099113
    152 H70         5.8080    0.6660   -3.2670 hc        1 MOL      0.099113
    153 H71         7.8420    2.6130   -4.0170 hc        1 MOL      0.049851
    154 H72         7.0430    1.3730   -5.0210 hc        1 MOL      0.049851
    155 H73         8.0340   -0.4130   -3.9070 hc        1 MOL      0.061083
    156 H74         8.9900    0.4860   -2.7970 hc        1 MOL      0.061083
    157 H75        10.4110    1.3200   -4.5220 hx        1 MOL      0.103900
    158 H76         9.3090    0.6690   -5.8250 hx        1 MOL      0.103900
    159 H77        11.2390   -0.6160   -3.9770 hn        1 MOL      0.263288
    160 H78        10.0330   -1.4470   -4.8120 hn        1 MOL      0.263288
    161 H79        11.2730   -0.7510   -5.5290 hn        1 MOL      0.263288
    162 N14         4.7780    1.7930   -0.1970 n         1 MOL      0.039160
    163 C49         3.8380    2.4440    0.7580 c3        1 MOL      0.020356
    164 C50         4.3430    2.4000    2.2500 c         1 MOL      0.315754
    165 O22         4.2210    3.4130    2.9750 o         1 MOL     -0.545103
    166 C51         2.5470    1.6220    0.7670 c3        1 MOL      0.127210
    167 C52         1.6870    2.1480   -0.3380 c3        1 MOL     -0.136014
    168 C53         0.5390    1.2180   -0.7390 c         1 MOL      0.752026
    169 O23         0.6080   -0.0260   -0.5860 o         1 MOL     -0.708876
    170 O24        -0.6110    1.6880   -1.0280 o         1 MOL     -0.708876
    171 H80         4.4610    0.9780   -0.7090 hn        1 MOL     -0.057842
    172 H81         3.6630    3.4960    0.5380 h1        1 MOL      0.080709
    173 H82         1.9910    1.7450    1.6910 hc        1 MOL     -0.002429
    174 H83         2.7270    0.5450    0.6900 hc        1 MOL     -0.002429
    175 H84         2.2790    2.3930   -1.2220 hc        1 MOL      0.016241
    176 H85         1.2680    3.0940   -0.0050 hc        1 MOL      0.016241
    177 N15         5.0680    1.3710    2.6600 n         1 MOL      0.146389
    178 C54         5.8120    1.3430    3.8990 c3        1 MOL     -0.331001
    179 H86         6.0210    0.3080    4.1740 h1        1 MOL      0.106927
    180 H87         6.7520    1.8810    3.7720 h1        1 MOL      0.106927
    181 H88         5.2260    1.8160    4.6870 h1        1 MOL      0.106927
    182 H89         5.0930    0.5060    2.1440 hn        1 MOL     -0.028987
    183 Ca1        -1.8240   -0.8470   -1.1000 Ca        1 MOL      1.704401
    184 O25        -0.1800   -0.8980   -3.4580 oh        1 MOL     -0.838582
    185 H90        -0.5100   -0.2390   -4.0780 ho        1 MOL      0.396710
    186 H91        -0.3260   -1.7320   -3.9010 ho        1 MOL      0.396710
    187 O26        -0.5490   -3.2200   -1.3770 oh        1 MOL     -0.838582
    188 H92         0.0480   -3.5140   -2.0640 ho        1 MOL      0.396710
    189 H93        -1.0500   -4.0070   -1.1560 ho        1 MOL      0.396710
@<TRIPOS>BOND
     1    1    2 1   
     2    1    4 1   
     3    1    5 1   
     4    1    6 1   
     5    2    3 2   
     6    2    7 1   
     7    7    8 1   
     8    7   15 1   
     9    8    9 1   
    10    8   11 1   
    11    8   16 1   
    12    9   10 2   
    13    9   19 1   
    14   11   12 1   
    15   11   17 1   
    16   11   18 1   
    17   12   13 1   
    18   12   14 1   
    19   19   20 1   
    20   19   28 1   
    21   20   21 1   
    22   20   23 1   
    23   20   29 1   
    24   21   22 2   
    25   21   41 1   
    26   23   24 1   
    27   23   30 1   
    28   23   31 1   
    29   24   25 1   
    30   24   32 1   
    31   24   33 1   
    32   25   26 1   
    33   25   34 1   
    34   25   35 1   
    35   26   27 1   
    36   26   36 1   
    37   26   37 1   
    38   27   38 1   
    39   27   39 1   
    40   27   40 1   
    41   41   42 1   
    42   41   49 1   
    43   42   43 1   
    44   42   45 1   
    45   42   50 1   
    46   43   44 2   
    47   43   53 1   
    48   45   46 1   
    49   45   51 1   
    50   45   52 1   
    51   46   47 1   
    52   46   48 1   
    53   53   54 1   
    54   53   57 1   
    55   54   55 1   
    56   54   58 1   
    57   54   59 1   
    58   55   56 2   
    59   55   60 1   
    60   60   61 1   
    61   60   68 1   
    62   61   62 1   
    63   61   64 1   
    64   61   69 1   
    65   62   63 2   
    66   62   72 1   
    67   64   65 1   
    68   64   70 1   
    69   64   71 1   
    70   65   66 1   
    71   65   67 1   
    72   72   73 1   
    73   72   76 1   
    74   73   74 1   
    75   73   77 1   
    76   73   78 1   
    77   74   75 2   
    78   74   79 1   
    79   79   80 1   
    80   79   86 1   
    81   80   81 1   
    82   80   83 1   
    83   80   87 1   
    84   81   82 2   
    85   81   93 1   
    86   83   84 1   
    87   83   85 1   
    88   83   88 1   
    89   84   90 1   
    90   84   91 1   
    91   84   92 1   
    92   85   89 1   
    93   93   94 1   
    94   93  101 1   
    95   94   95 1   
    96   94   97 1   
    97   94  102 1   
    98   95   96 2   
    99   95  112 1   
   100   97   98 1   
   101   97   99 1   
   102   97  103 1   
   103   98  100 1   
   104   98  104 1   
   105   98  105 1   
   106   99  106 1   
   107   99  107 1   
   108   99  108 1   
   109  100  109 1   
   110  100  110 1   
   111  100  111 1   
   112  112  113 1   
   113  112  119 1   
   114  113  114 1   
   115  113  116 1   
   116  113  120 1   
   117  114  115 2   
   118  114  126 1   
   119  116  117 1   
   120  116  118 1   
   121  116  121 1   
   122  117  123 1   
   123  117  124 1   
   124  117  125 1   
   125  118  122 1   
   126  126  127 1   
   127  126  133 1   
   128  127  128 1   
   129  127  130 1   
   130  127  134 1   
   131  128  129 2   
   132  128  140 1   
   133  130  131 1   
   134  130  132 1   
   135  130  135 1   
   136  131  137 1   
   137  131  138 1   
   138  131  139 1   
   139  132  136 1   
   140  140  141 1   
   141  140  149 1   
   142  141  142 1   
   143  141  144 1   
   144  141  150 1   
   145  142  143 2   
   146  142  162 1   
   147  144  145 1   
   148  144  151 1   
   149  144  152 1   
   150  145  146 1   
   151  145  153 1   
   152  145  154 1   
   153  146  147 1   
   154  146  155 1   
   155  146  156 1   
   156  147  148 1   
   157  147  157 1   
   158  147  158 1   
   159  148  159 1   
   160  148  160 1   
   161  148  161 1   
   162  162  163 1   
   163  162  171 1   
   164  163  164 1   
   165  163  166 1   
   166  163  172 1   
   167  164  165 2   
   168  164  177 1   
   169  166  167 1   
   170  166  173 1   
   171  166  174 1   
   172  167  168 1   
   173  167  175 1   
   174  167  176 1   
   175  168  169 1   
   176  168  170 1   
   177  177  178 1   
   178  177  182 1   
   179  178  179 1   
   180  178  180 1   
   181  178  181 1   
   182  184  185 1   
   183  184  186 1   
   184  187  188 1   
   185  187  189 1   
@<TRIPOS>SUBSTRUCTURE
     1 MOL         1 TEMP              0 ****  ****    0 ROOT
