@<TRIPOS>MOLECULE
MOL
  169   169     1     0     0
SMALL
resp


@<TRIPOS>ATOM
      1 C1         -0.0940    2.6760    6.0890 c3        1 MOL     -0.439351
      2 C2         -0.4300    2.4710    4.5740 c         1 MOL      0.699424
      3 O1          0.1050    3.2410    3.7620 o         1 MOL     -0.568021
      4 H1          0.6630    1.9540    6.3930 hc        1 MOL      0.110839
      5 H2          0.2850    3.6860    6.2440 hc        1 MOL      0.110839
      6 H3         -0.9960    2.5300    6.6850 hc        1 MOL      0.110839
      7 N1         -1.4560    1.7410    4.2220 n         1 MOL     -0.518568
      8 C3         -2.1030    1.7960    2.9490 c3        1 MOL      0.192208
      9 C4         -2.5050    3.1970    2.4290 c         1 MOL      0.605927
     10 O2         -3.0280    4.0040    3.2590 o         1 MOL     -0.601702
     11 C5         -3.2500    0.7640    2.8910 c3        1 MOL     -0.332207
     12 C6         -4.1870    0.7400    1.6460 c         1 MOL      0.719816
     13 O3         -5.4300    0.7050    1.7440 o         1 MOL     -0.658785
     14 O4         -3.6050    0.7870    0.5010 o         1 MOL     -0.658785
     15 H4         -1.9080    1.1850    4.9310 hn        1 MOL      0.292295
     16 H5         -1.3850    1.4780    2.1910 h1        1 MOL      0.022241
     17 H6         -3.9030    0.9560    3.7440 hc        1 MOL      0.059408
     18 H7         -2.8500   -0.2500    2.9540 hc        1 MOL      0.059408
     19 N2         -2.1560    3.5620    1.1860 n         1 MOL     -0.369926
     20 C7         -2.1270    4.9650    0.6770 c3        1 MOL      0.211084
     21 C8         -3.1960    5.0430   -0.4690 c         1 MOL      0.257587
     22 O5         -3.7240    6.1220   -0.6790 o         1 MOL     -0.532413
     23 C9         -0.6550    5.3680    0.3740 c3        1 MOL     -0.078623
     24 H8         -1.5770    2.9430    0.6440 hn        1 MOL      0.164883
     25 H9         -2.3700    5.6070    1.5230 h1        1 MOL      0.023934
     26 H10        -0.4820    6.4150    0.1290 hc        1 MOL      0.025698
     27 H11        -0.0620    5.1620    1.2720 hc        1 MOL      0.025698
     28 H12        -0.2700    4.7960   -0.4660 hc        1 MOL      0.025698
     29 N3         -3.2850    4.0250   -1.3030 n         1 MOL     -0.047204
     30 C10        -4.2900    3.9990   -2.4140 c3        1 MOL     -0.117433
     31 C11        -5.5900    3.3850   -1.9500 c         1 MOL      0.499222
     32 O6         -6.5840    3.4980   -2.6900 o         1 MOL     -0.581957
     33 C12        -3.7670    3.1610   -3.5620 c3        1 MOL     -0.237865
     34 C13        -3.1730    1.8250   -3.1310 c         1 MOL      0.836857
     35 O7         -3.8800    0.9170   -2.6070 o         1 MOL     -0.765536
     36 O8         -1.9800    1.6000   -3.2660 o         1 MOL     -0.765536
     37 H13        -2.7070    3.2150   -1.1120 hn        1 MOL      0.141585
     38 H14        -4.6020    5.0020   -2.7010 h1        1 MOL      0.127342
     39 H15        -2.9160    3.6000   -4.0790 hc        1 MOL      0.067524
     40 H16        -4.4840    2.9190   -4.3440 hc        1 MOL      0.067524
     41 N4         -5.7160    2.8480   -0.7610 n         1 MOL     -0.141633
     42 C14        -7.0230    2.3720   -0.3530 c3        1 MOL     -0.306949
     43 C15        -7.3660    0.8970   -0.6080 c         1 MOL      0.627911
     44 O9         -8.4690    0.3960   -0.3400 o         1 MOL     -0.625541
     45 H17        -4.9200    2.6330   -0.1770 hn        1 MOL      0.165463
     46 H18        -7.7740    2.9590   -0.8870 h1        1 MOL      0.127240
     47 H19        -7.1920    2.4830    0.7220 h1        1 MOL      0.127240
     48 N5         -6.3850    0.1310   -1.1530 n         1 MOL     -0.280473
     49 C16        -6.7560   -1.2600   -1.6920 c3        1 MOL     -0.030052
     50 C17        -6.6610   -2.3560   -0.6560 c         1 MOL      0.422756
     51 O10        -6.8750   -3.5710   -0.8650 o         1 MOL     -0.531887
     52 C18        -6.0480   -1.5410   -3.0310 c3        1 MOL     -0.209921
     53 C19        -4.5720   -1.8560   -2.7670 c         1 MOL      0.606446
     54 N6         -3.8560   -2.3300   -3.7860 n         1 MOL     -0.727973
     55 O11        -4.0040   -1.8250   -1.6580 o         1 MOL     -0.629677
     56 H20        -5.4860    0.5520   -1.3640 hn        1 MOL      0.210722
     57 H21        -7.7850   -1.3080   -2.0270 h1        1 MOL      0.115537
     58 H22        -6.1010   -0.6140   -3.5950 hc        1 MOL      0.090672
     59 H23        -6.4330   -2.4160   -3.5450 hc        1 MOL      0.090672
     60 H24        -4.2090   -2.2260   -4.7230 hn        1 MOL      0.350144
     61 H25        -2.9380   -2.7290   -3.5880 hn        1 MOL      0.350144
     62 N7         -6.4260   -1.9480    0.6020 n         1 MOL     -0.164220
     63 C20        -6.4910   -2.8210    1.8020 c3        1 MOL     -0.269809
     64 C21        -5.4460   -3.8870    1.9100 c         1 MOL      0.586917
     65 O12        -5.6270   -4.9390    2.5400 o         1 MOL     -0.563043
     66 H26        -6.2610   -0.9630    0.7180 hn        1 MOL      0.269545
     67 H27        -7.4510   -3.3350    1.8500 h1        1 MOL      0.115231
     68 H28        -6.3850   -2.1640    2.6700 h1        1 MOL      0.115231
     69 N8         -4.2690   -3.5560    1.2700 n         1 MOL     -0.270110
     70 C22        -3.0110   -4.2950    1.1900 c3        1 MOL     -0.327776
     71 C23        -1.7410   -3.3890    0.9240 c         1 MOL      0.811956
     72 O13        -1.8390   -2.4430    0.1770 o         1 MOL     -0.669944
     73 C24        -3.1510   -5.3470    0.1040 c3        1 MOL      0.401880
     74 C25        -3.4440   -4.8540   -1.2990 c3        1 MOL     -0.126324
     75 O14        -1.9800   -6.0430   -0.0410 oh        1 MOL     -0.665448
     76 H29        -4.2500   -2.6430    0.8450 hn        1 MOL      0.194963
     77 H30        -2.8350   -4.9040    2.0760 h1        1 MOL      0.110686
     78 H31        -3.9480   -6.0460    0.3730 h1        1 MOL     -0.001749
     79 H32        -2.1330   -6.7890   -0.6270 ho        1 MOL      0.397762
     80 H33        -3.3150   -5.6900   -1.9820 hc        1 MOL      0.030249
     81 H34        -4.4820   -4.5320   -1.3550 hc        1 MOL      0.030249
     82 H35        -2.7330   -4.0820   -1.6020 hc        1 MOL      0.030249
     83 N9         -0.6150   -3.6820    1.5380 n         1 MOL     -0.502254
     84 C26         0.7050   -2.9080    1.5290 c3        1 MOL     -0.009965
     85 C27         1.4780   -3.1630    0.2210 c         1 MOL      0.570374
     86 O15         1.6560   -4.2540   -0.2590 o         1 MOL     -0.570648
     87 C28         1.6210   -3.0230    2.7800 c3        1 MOL     -0.004364
     88 C29         0.7290   -2.6400    3.9890 c3        1 MOL      0.201162
     89 C30         2.7640   -2.0280    2.8010 c3        1 MOL      0.068016
     90 C31         1.3740   -3.0360    5.3290 c3        1 MOL     -0.259100
     91 H36        -0.6330   -4.4760    2.1640 hn        1 MOL      0.292231
     92 H37         0.4680   -1.8480    1.5880 h1        1 MOL      0.125808
     93 H38         2.0170   -4.0470    2.8610 hc        1 MOL      0.009921
     94 H39        -0.2870   -3.0280    3.9400 hc        1 MOL     -0.038214
     95 H40         0.5860   -1.5590    4.0160 hc        1 MOL     -0.038214
     96 H41         3.4220   -2.2530    1.9630 hc        1 MOL     -0.025089
     97 H42         2.4420   -0.9940    2.7750 hc        1 MOL     -0.025089
     98 H43         3.4720   -2.1040    3.6300 hc        1 MOL     -0.025089
     99 H44         1.0490   -4.0580    5.5070 hc        1 MOL      0.042941
    100 H45         2.4640   -3.0660    5.2820 hc        1 MOL      0.042941
    101 H46         1.0250   -2.4450    6.1810 hc        1 MOL      0.042941
    102 N10         1.9070   -2.0570   -0.3750 n         1 MOL     -0.079276
    103 C32         2.8130   -1.9050   -1.4820 c3        1 MOL      0.007333
    104 C33         4.2010   -1.3820   -1.0930 c         1 MOL      0.412075
    105 O16         4.3860   -1.0100    0.0610 o         1 MOL     -0.439113
    106 C34         2.1360   -1.0760   -2.5810 c3        1 MOL      0.115095
    107 C35         0.8710   -1.6560   -3.1860 c         1 MOL      0.697934
    108 O17        -0.2430   -1.4060   -2.6910 o         1 MOL     -0.701366
    109 O18         0.8640   -2.2420   -4.2810 o         1 MOL     -0.701366
    110 H47         1.6860   -1.1630    0.0560 hn        1 MOL     -0.149848
    111 H48         2.9050   -2.8960   -1.9400 h1        1 MOL      0.044717
    112 H49         2.8060   -0.9320   -3.4340 hc        1 MOL     -0.067426
    113 H50         1.8650   -0.1480   -2.0860 hc        1 MOL     -0.067426
    114 N11         5.2070   -1.4630   -1.8880 n         1 MOL     -0.557698
    115 C36         6.5790   -1.1040   -1.3890 c3        1 MOL      0.555507
    116 C37         6.7470    0.3680   -0.9980 c         1 MOL      0.016877
    117 O19         7.3640    0.5960    0.0340 o         1 MOL     -0.431963
    118 C38         7.7080   -1.5460   -2.2990 c3        1 MOL     -0.426567
    119 C39         9.1000   -1.4050   -1.6490 ca        1 MOL      0.186186
    120 C40         9.4260   -2.4420   -0.7690 ca        1 MOL     -0.199338
    121 C41        10.0440   -0.4160   -1.9940 ca        1 MOL     -0.199338
    122 C42        10.7350   -2.6040   -0.3580 ca        1 MOL     -0.068538
    123 C43        11.3290   -0.4330   -1.3950 ca        1 MOL     -0.068538
    124 C44        11.6870   -1.5530   -0.6290 ca        1 MOL     -0.156456
    125 H51         5.0770   -1.7760   -2.8380 hn        1 MOL      0.302564
    126 H52         6.7350   -1.7850   -0.5550 h1        1 MOL      0.035897
    127 H53         7.7930   -0.8860   -3.1710 hc        1 MOL      0.102959
    128 H54         7.5980   -2.6180   -2.4900 hc        1 MOL      0.102959
    129 H55         8.6680   -3.1820   -0.5650 ha        1 MOL      0.133888
    130 H56         9.7820    0.3210   -2.7420 ha        1 MOL      0.133888
    131 H57        11.1110   -3.4980    0.1240 ha        1 MOL      0.101285
    132 H58        11.9800    0.3450   -1.7470 ha        1 MOL      0.101285
    133 H59        12.7320   -1.6280   -0.3920 ha        1 MOL      0.103952
    134 N12         6.2120    1.4050   -1.6920 n         1 MOL      0.173589
    135 C45         6.2310    2.7860   -1.1820 c3        1 MOL      0.107365
    136 C46         5.5450    2.9250    0.1940 c         1 MOL      0.214738
    137 O20         5.9600    3.8410    0.9340 o         1 MOL     -0.499593
    138 C47         5.5180    3.5960   -2.2320 c3        1 MOL     -0.172944
    139 C48         5.8540    2.7780   -3.4860 c3        1 MOL      0.112183
    140 C49         5.7310    1.3190   -3.0280 c3        1 MOL     -0.220595
    141 H60         7.2440    3.1660   -1.1380 h1        1 MOL      0.049459
    142 H61         4.4340    3.4720   -2.1620 hc        1 MOL      0.076836
    143 H62         5.8700    4.6210   -2.2190 hc        1 MOL      0.076836
    144 H63         5.3310    3.0360   -4.4000 hc        1 MOL     -0.022048
    145 H64         6.9320    2.8630   -3.6290 hc        1 MOL     -0.022048
    146 H65         4.6450    1.1950   -3.0190 h1        1 MOL      0.087995
    147 H66         6.3310    0.6450   -3.6260 h1        1 MOL      0.087995
    148 N13         4.5910    2.0800    0.5360 n         1 MOL     -0.097524
    149 C50         3.8290    2.1060    1.7680 c3        1 MOL      0.007225
    150 C51         4.4340    1.2790    2.9320 c         1 MOL      0.478059
    151 O21         4.3610    1.7550    4.0460 o         1 MOL     -0.573413
    152 C52         2.4880    1.5080    1.4510 c3        1 MOL      0.163857
    153 C53         1.6600    2.1050    0.2430 c3        1 MOL      0.073064
    154 C54         0.4220    1.4050   -0.1390 c         1 MOL      0.813625
    155 O22        -0.6260    1.9980   -0.5260 o         1 MOL     -0.771041
    156 O23         0.3100    0.2160    0.1050 o         1 MOL     -0.771041
    157 H67         4.3520    1.4380   -0.2010 hn        1 MOL      0.146226
    158 H68         3.7740    3.1170    2.1520 h1        1 MOL      0.076894
    159 H69         1.8960    1.5360    2.3630 hc        1 MOL     -0.008917
    160 H70         2.6080    0.4420    1.2190 hc        1 MOL     -0.008917
    161 H71         2.3510    2.1360   -0.6040 hc        1 MOL     -0.062563
    162 H72         1.4530    3.1410    0.5000 hc        1 MOL     -0.062563
    163 N14         5.0890    0.1510    2.6800 n         1 MOL     -0.112720
    164 C55         6.2460   -0.2750    3.5580 c3        1 MOL     -0.093690
    165 H73         5.9870   -1.1960    4.0780 h1        1 MOL      0.056728
    166 H74         7.1290   -0.4430    2.9410 h1        1 MOL      0.056728
    167 H75         6.4560    0.5070    4.2880 h1        1 MOL      0.056728
    168 H76         5.0620   -0.1790    1.7210 hn        1 MOL      0.106255
    169 Ca1        -1.9400   -0.1430   -1.2490 Ca        1 MOL      1.717472
@<TRIPOS>BOND
     1    1    2 1   
     2    1    4 1   
     3    1    5 1   
     4    1    6 1   
     5    2    3 2   
     6    2    7 1   
     7    7    8 1   
     8    7   15 1   
     9    8    9 1   
    10    8   11 1   
    11    8   16 1   
    12    9   10 2   
    13    9   19 1   
    14   11   12 1   
    15   11   17 1   
    16   11   18 1   
    17   12   13 1   
    18   12   14 1   
    19   19   20 1   
    20   19   24 1   
    21   20   21 1   
    22   20   23 1   
    23   20   25 1   
    24   21   22 2   
    25   21   29 1   
    26   23   26 1   
    27   23   27 1   
    28   23   28 1   
    29   29   30 1   
    30   29   37 1   
    31   30   31 1   
    32   30   33 1   
    33   30   38 1   
    34   31   32 2   
    35   31   41 1   
    36   33   34 1   
    37   33   39 1   
    38   33   40 1   
    39   34   35 1   
    40   34   36 1   
    41   41   42 1   
    42   41   45 1   
    43   42   43 1   
    44   42   46 1   
    45   42   47 1   
    46   43   44 2   
    47   43   48 1   
    48   48   49 1   
    49   48   56 1   
    50   49   50 1   
    51   49   52 1   
    52   49   57 1   
    53   50   51 2   
    54   50   62 1   
    55   52   53 1   
    56   52   58 1   
    57   52   59 1   
    58   53   54 1   
    59   53   55 2   
    60   54   60 1   
    61   54   61 1   
    62   62   63 1   
    63   62   66 1   
    64   63   64 1   
    65   63   67 1   
    66   63   68 1   
    67   64   65 2   
    68   64   69 1   
    69   69   70 1   
    70   69   76 1   
    71   70   71 1   
    72   70   73 1   
    73   70   77 1   
    74   71   72 2   
    75   71   83 1   
    76   73   74 1   
    77   73   75 1   
    78   73   78 1   
    79   74   80 1   
    80   74   81 1   
    81   74   82 1   
    82   75   79 1   
    83   83   84 1   
    84   83   91 1   
    85   84   85 1   
    86   84   87 1   
    87   84   92 1   
    88   85   86 2   
    89   85  102 1   
    90   87   88 1   
    91   87   89 1   
    92   87   93 1   
    93   88   90 1   
    94   88   94 1   
    95   88   95 1   
    96   89   96 1   
    97   89   97 1   
    98   89   98 1   
    99   90   99 1   
   100   90  100 1   
   101   90  101 1   
   102  102  103 1   
   103  102  110 1   
   104  103  104 1   
   105  103  106 1   
   106  103  111 1   
   107  104  105 2   
   108  104  114 1   
   109  106  107 1   
   110  106  112 1   
   111  106  113 1   
   112  107  108 1   
   113  107  109 1   
   114  114  115 1   
   115  114  125 1   
   116  115  116 1   
   117  115  118 1   
   118  115  126 1   
   119  116  117 2   
   120  116  134 1   
   121  118  119 1   
   122  118  127 1   
   123  118  128 1   
   124  119  120 ar  
   125  119  121 ar  
   126  120  122 ar  
   127  120  129 1   
   128  121  123 ar  
   129  121  130 1   
   130  122  124 ar  
   131  122  131 1   
   132  123  124 ar  
   133  123  132 1   
   134  124  133 1   
   135  134  135 1   
   136  134  140 1   
   137  135  136 1   
   138  135  138 1   
   139  135  141 1   
   140  136  137 2   
   141  136  148 1   
   142  138  139 1   
   143  138  142 1   
   144  138  143 1   
   145  139  140 1   
   146  139  144 1   
   147  139  145 1   
   148  140  146 1   
   149  140  147 1   
   150  148  149 1   
   151  148  157 1   
   152  149  150 1   
   153  149  152 1   
   154  149  158 1   
   155  150  151 2   
   156  150  163 1   
   157  152  153 1   
   158  152  159 1   
   159  152  160 1   
   160  153  154 1   
   161  153  161 1   
   162  153  162 1   
   163  154  155 1   
   164  154  156 1   
   165  163  164 1   
   166  163  168 1   
   167  164  165 1   
   168  164  166 1   
   169  164  167 1   
@<TRIPOS>SUBSTRUCTURE
     1 MOL         1 TEMP              0 ****  ****    0 ROOT
