@<TRIPOS>MOLECULE
MOL
  189   185     1     0     0
SMALL
resp


@<TRIPOS>ATOM
      1 C1          0.1660    2.1250    5.7900 c3        1 MOL     -0.385449
      2 C2         -0.4090    2.0990    4.3450 c         1 MOL      0.646671
      3 O1          0.2830    2.4310    3.4090 o         1 MOL     -0.575313
      4 H1          0.7850    1.2430    5.9500 hc        1 MOL      0.103038
      5 H2          0.7710    3.0220    5.9250 hc        1 MOL      0.103038
      6 H3         -0.6530    2.1280    6.5080 hc        1 MOL      0.103038
      7 N1         -1.6390    1.6580    4.0920 n         1 MOL     -0.522572
      8 C3         -2.2720    1.5790    2.7710 c3        1 MOL      0.209992
      9 C4         -2.6290    2.9200    2.1290 c         1 MOL      0.429750
     10 O2         -3.4040    3.6290    2.7290 o         1 MOL     -0.600504
     11 C5         -3.3780    0.5060    2.7960 c3        1 MOL     -0.170094
     12 C6         -4.0330    0.2730    1.4190 c         1 MOL      0.696657
     13 O3         -5.1680   -0.2690    1.4840 o         1 MOL     -0.638223
     14 O4         -3.4980    0.6300    0.3320 o         1 MOL     -0.638223
     15 H4         -2.2410    1.6290    4.9030 hn        1 MOL      0.291680
     16 H5         -1.5460    1.1990    2.0510 h1        1 MOL     -0.021782
     17 H6         -4.0850    0.7660    3.5900 hc        1 MOL      0.029255
     18 H7         -3.0310   -0.4980    3.0640 hc        1 MOL      0.029255
     19 N2         -2.0720    3.2990    1.0150 n         1 MOL     -0.015067
     20 C7         -2.1260    4.6840    0.4860 c3        1 MOL      0.024166
     21 C8         -3.2070    4.8700   -0.6860 c         1 MOL      0.300234
     22 O5         -3.5710    5.9870   -1.0520 o         1 MOL     -0.542050
     23 C9         -0.7840    5.1710    0.0490 c3        1 MOL      0.021217
     24 C10        -0.0050    5.7880    1.2000 c3        1 MOL     -0.013981
     25 C11        -0.5020    7.1260    1.8280 c3        1 MOL     -0.212513
     26 C12        -0.1760    7.1340    3.3490 c3        1 MOL      0.268273
     27 N3         -0.7740    8.3170    3.9640 n4        1 MOL     -0.505291
     28 H8         -1.4350    2.6700    0.5560 hn        1 MOL      0.072558
     29 H9         -2.4570    5.3070    1.3090 h1        1 MOL      0.045189
     30 H10        -0.9690    5.9330   -0.7070 hc        1 MOL      0.031685
     31 H11        -0.1670    4.4520   -0.4890 hc        1 MOL      0.031685
     32 H12         1.0300    5.9110    0.8800 hc        1 MOL      0.041598
     33 H13         0.0570    5.0190    1.9720 hc        1 MOL      0.041598
     34 H14        -1.5740    7.2240    1.6500 hc        1 MOL      0.063123
     35 H15        -0.0340    8.0210    1.4160 hc        1 MOL      0.063123
     36 H16         0.8980    7.1290    3.5060 hx        1 MOL      0.024923
     37 H17        -0.6460    6.2740    3.8100 hx        1 MOL      0.024923
     38 H18        -0.7830    8.2700    4.9700 hn        1 MOL      0.359378
     39 H19        -0.2260    9.1280    3.7250 hn        1 MOL      0.359378
     40 H20        -1.7380    8.3430    3.6790 hn        1 MOL      0.359378
     41 N4         -3.5950    3.7880   -1.3720 n         1 MOL     -0.089947
     42 C13        -4.4410    3.7690   -2.5240 c3        1 MOL     -0.063919
     43 C14        -5.8060    3.0550   -2.2820 c         1 MOL      0.405651
     44 O6         -6.5530    2.9920   -3.1860 o         1 MOL     -0.468442
     45 C15        -3.7100    3.3400   -3.7740 c3        1 MOL     -0.031839
     46 C16        -2.9280    2.0030   -3.6590 c         1 MOL      0.794107
     47 O7         -2.1910    1.7110   -4.6210 o         1 MOL     -0.730485
     48 O8         -3.0270    1.2450   -2.6690 o         1 MOL     -0.730485
     49 H21        -3.2030    2.9090   -1.0720 hn        1 MOL      0.109614
     50 H22        -4.7470    4.7720   -2.7980 h1        1 MOL      0.086715
     51 H23        -2.9190    4.0100   -4.1070 hc        1 MOL      0.006946
     52 H24        -4.4310    3.2460   -4.5840 hc        1 MOL      0.006946
     53 N5         -6.0650    2.5900   -1.0700 n         1 MOL     -0.213310
     54 C17        -7.2570    1.9130   -0.6110 c3        1 MOL     -0.146248
     55 C18        -7.4790    0.6080   -1.3390 c         1 MOL      0.530660
     56 O9         -8.5400    0.4840   -1.9520 o         1 MOL     -0.563478
     57 H25        -5.3720    2.7680   -0.3570 hn        1 MOL      0.195134
     58 H26        -8.0610    2.6270   -0.8120 h1        1 MOL      0.084836
     59 H27        -7.2310    1.8840    0.4820 h1        1 MOL      0.084836
     60 N6         -6.5350   -0.3410   -1.2470 n         1 MOL     -0.231392
     61 C19        -6.7060   -1.7510   -1.8790 c3        1 MOL     -0.064481
     62 C20        -6.7390   -2.9110   -0.9160 c         1 MOL      0.481233
     63 O10        -6.7950   -4.0520   -1.3080 o         1 MOL     -0.518822
     64 C21        -5.7930   -1.9150   -3.0460 c3        1 MOL     -0.070688
     65 C22        -4.3180   -1.9030   -2.5040 c         1 MOL      0.728379
     66 O11        -4.0340   -2.1670   -1.3080 o         1 MOL     -0.742201
     67 O12        -3.3660   -1.7900   -3.3020 o         1 MOL     -0.742201
     68 H28        -5.7470   -0.1640   -0.6470 hn        1 MOL      0.083006
     69 H29        -7.7220   -1.8320   -2.2660 h1        1 MOL      0.099180
     70 H30        -5.8460   -1.1460   -3.8220 hc        1 MOL      0.054971
     71 H31        -5.9630   -2.8550   -3.5610 hc        1 MOL      0.054971
     72 N7         -6.6800   -2.5750    0.3970 n         1 MOL     -0.299571
     73 C23        -6.6990   -3.5480    1.4770 c3        1 MOL     -0.214656
     74 C24        -5.3430   -4.3010    1.5510 c         1 MOL      0.520392
     75 O13        -5.4120   -5.3960    2.2340 o         1 MOL     -0.588445
     76 H32        -6.5470   -1.6130    0.6580 hn        1 MOL      0.243739
     77 H33        -7.5780   -4.1820    1.3730 h1        1 MOL      0.124005
     78 H34        -6.5860   -3.0620    2.4420 h1        1 MOL      0.124005
     79 N8         -4.2510   -3.9250    0.8630 n         1 MOL     -0.171950
     80 C25        -2.9160   -4.5840    0.9140 c3        1 MOL     -0.245336
     81 C26        -1.7500   -3.5640    1.0650 c         1 MOL      0.811979
     82 O14        -1.9500   -2.3670    0.8180 o         1 MOL     -0.717270
     83 C27        -2.6460   -5.3960   -0.3340 c3        1 MOL      0.401647
     84 C28        -3.4940   -6.6860   -0.3660 c3        1 MOL     -0.410108
     85 O15        -2.9030   -4.8230   -1.5970 oh        1 MOL     -0.593752
     86 H35        -4.2310   -3.0500    0.3550 hn        1 MOL      0.235668
     87 H36        -2.8370   -5.1120    1.8640 h1        1 MOL      0.087609
     88 H37        -1.6230   -5.7690   -0.2820 h1        1 MOL      0.011396
     89 H38        -3.5300   -4.1000   -1.5970 ho        1 MOL      0.399476
     90 H39        -3.5450   -7.1610    0.6100 hc        1 MOL      0.100560
     91 H40        -4.5180   -6.5120   -0.6930 hc        1 MOL      0.100560
     92 H41        -3.0220   -7.3580   -1.0780 hc        1 MOL      0.100560
     93 N9         -0.5960   -3.9650    1.4730 n         1 MOL     -0.598039
     94 C29         0.5860   -3.0720    1.6650 c3        1 MOL      0.035931
     95 C30         1.8000   -3.4710    0.8450 c         1 MOL      0.505823
     96 O16         2.2560   -4.5660    0.9820 o         1 MOL     -0.537089
     97 C31         0.9260   -2.9810    3.1690 c3        1 MOL      0.345428
     98 C32        -0.2880   -2.8790    4.1220 c3        1 MOL      0.261531
     99 C33         1.9160   -1.8530    3.6650 c3        1 MOL     -0.806596
    100 C34        -0.0570   -3.4530    5.4830 c3        1 MOL     -0.597412
    101 H42        -0.4610   -4.9620    1.5880 hn        1 MOL      0.293042
    102 H43         0.2820   -2.0520    1.4250 h1        1 MOL      0.020020
    103 H44         1.3710   -3.9600    3.3590 hc        1 MOL     -0.052441
    104 H45        -1.1820   -3.3360    3.7120 hc        1 MOL     -0.019874
    105 H46        -0.5370   -1.8240    4.2340 hc        1 MOL     -0.019874
    106 H47         2.8200   -2.0380    3.0950 hc        1 MOL      0.191985
    107 H48         1.4310   -0.8760    3.5890 hc        1 MOL      0.191985
    108 H49         2.0230   -1.9950    4.7420 hc        1 MOL      0.191985
    109 H50         0.3740   -4.4060    5.2040 hc        1 MOL      0.138257
    110 H51         0.4870   -2.7690    6.1500 hc        1 MOL      0.138257
    111 H52        -0.9750   -3.4310    6.0690 hc        1 MOL      0.138257
    112 N10         2.3570   -2.5540   -0.0450 n         1 MOL     -0.131100
    113 C35         3.6110   -2.8910   -0.8180 c3        1 MOL     -0.007572
    114 C36         4.8820   -2.6390    0.0770 c         1 MOL      0.242615
    115 O17         4.7430   -1.9090    1.0330 o         1 MOL     -0.260873
    116 C37         3.7920   -2.0340   -2.0870 c3        1 MOL     -0.002263
    117 C38         2.7390   -2.3370   -3.1410 c3        1 MOL     -0.369431
    118 O18         3.9700   -0.6320   -1.8170 oh        1 MOL     -0.137089
    119 H53         2.0080   -1.6150   -0.1040 hn        1 MOL      0.141585
    120 H54         3.5840   -3.9440   -1.1120 h1        1 MOL      0.085099
    121 H55         4.6800   -2.3200   -2.6430 h1        1 MOL      0.072067
    122 H56         3.9160   -0.1580   -2.6530 ho        1 MOL      0.319491
    123 H57         3.0970   -1.9880   -4.1040 hc        1 MOL      0.109236
    124 H58         2.4820   -3.4010   -3.1710 hc        1 MOL      0.109236
    125 H59         1.8480   -1.7570   -2.8590 hc        1 MOL      0.109236
    126 N11         6.0590   -3.1240   -0.3500 n         1 MOL     -0.267333
    127 C39         7.3460   -2.7350    0.1550 c3        1 MOL     -0.021716
    128 C40         7.5280   -1.2490    0.2190 c         1 MOL      0.216013
    129 O19         8.2430   -0.7290    1.1000 o         1 MOL     -0.451005
    130 C41         8.5380   -3.2920   -0.6120 c3        1 MOL      0.186348
    131 C42         9.0270   -4.6620   -0.2870 c3        1 MOL     -0.307264
    132 O20         8.2080   -3.3650   -2.0090 oh        1 MOL     -0.667678
    133 H60         6.0240   -3.5700   -1.2530 hn        1 MOL      0.262364
    134 H61         7.3980   -3.1870    1.1480 h1        1 MOL      0.150724
    135 H62         9.3300   -2.5720   -0.4290 h1        1 MOL      0.095064
    136 H63         8.9220   -3.7820   -2.4910 ho        1 MOL      0.435634
    137 H64        10.0220   -4.7760   -0.7100 hc        1 MOL      0.093874
    138 H65         8.9840   -4.8270    0.7930 hc        1 MOL      0.093874
    139 H66         8.4310   -5.4860   -0.6820 hc        1 MOL      0.093874
    140 N12         7.0100   -0.4810   -0.8060 n         1 MOL      0.109348
    141 C43         7.2130    0.9500   -0.8780 c3        1 MOL     -0.363601
    142 C44         6.2160    1.6660    0.0830 c         1 MOL      0.560952
    143 O21         6.5570    2.7430    0.5700 o         1 MOL     -0.563177
    144 C45         7.1590    1.4020   -2.3900 c3        1 MOL      0.134229
    145 C46         7.6540    2.8430   -2.5660 c3        1 MOL      0.012349
    146 C47         7.0510    3.3980   -3.8890 c3        1 MOL     -0.167298
    147 C48         7.8080    2.7120   -5.0210 c3        1 MOL      0.128934
    148 N13         7.4240    3.2430   -6.3040 n4        1 MOL     -0.400988
    149 H67         6.6280   -0.9010   -1.6320 hn        1 MOL      0.067125
    150 H68         8.2340    1.1960   -0.6110 h1        1 MOL      0.147866
    151 H69         6.2720    1.0600   -2.9180 hc        1 MOL     -0.033130
    152 H70         8.0070    0.8240   -2.7520 hc        1 MOL     -0.033130
    153 H71         8.7360    2.9280   -2.6600 hc        1 MOL      0.045964
    154 H72         7.2460    3.4400   -1.7480 hc        1 MOL      0.045964
    155 H73         7.3870    4.4260   -3.9270 hc        1 MOL      0.063891
    156 H74         5.9600    3.2820   -3.8710 hc        1 MOL      0.063891
    157 H75         7.8020    1.6380   -4.8820 hx        1 MOL      0.065755
    158 H76         8.8800    2.9160   -4.9210 hx        1 MOL      0.065755
    159 H77         8.0270    2.9430   -7.0630 hn        1 MOL      0.323580
    160 H78         6.4930    2.9050   -6.5100 hn        1 MOL      0.323580
    161 H79         7.3660    4.2470   -6.2540 hn        1 MOL      0.323580
    162 N14         5.0290    1.1770    0.3170 n         1 MOL     -0.006305
    163 C49         4.0900    1.6850    1.3130 c3        1 MOL     -0.025591
    164 C50         4.5620    1.4260    2.7390 c         1 MOL      0.444319
    165 O22         4.5840    2.3990    3.5340 o         1 MOL     -0.530154
    166 C51         2.7520    1.0520    1.1100 c3        1 MOL      0.108094
    167 C52         1.9770    1.7420   -0.0180 c3        1 MOL     -0.166444
    168 C53         0.6470    0.9150   -0.2830 c         1 MOL      0.735963
    169 O23         0.6250   -0.3620   -0.1330 o         1 MOL     -0.671420
    170 O24        -0.3710    1.5600   -0.5930 o         1 MOL     -0.671420
    171 H80         4.7330    0.3660   -0.2180 hn        1 MOL     -0.215951
    172 H81         4.0720    2.7640    1.1410 h1        1 MOL      0.044989
    173 H82         2.1780    1.2110    2.0220 hc        1 MOL      0.027310
    174 H83         2.9680    0.0070    0.9150 hc        1 MOL      0.027310
    175 H84         2.5080    1.5780   -0.9570 hc        1 MOL     -0.002216
    176 H85         1.7950    2.7980    0.1540 hc        1 MOL     -0.002216
    177 N15         5.0700    0.1630    3.0060 n         1 MOL     -0.203744
    178 C54         6.0190   -0.1410    4.1160 c3        1 MOL     -0.169478
    179 H86         5.4920   -0.6720    4.9090 h1        1 MOL      0.078384
    180 H87         6.8320   -0.7630    3.7410 h1        1 MOL      0.078384
    181 H88         6.4260    0.7900    4.5120 h1        1 MOL      0.078384
    182 H89         5.0740   -0.5050    2.2520 hn        1 MOL      0.177513
    183 Ca1        -1.7730   -0.6010   -1.2380 Ca        1 MOL      1.734121
    184 O25        -0.2430    0.3940   -3.1450 oh        1 MOL     -0.893443
    185 H90        -0.8690    0.9660   -3.5780 ho        1 MOL      0.406981
    186 H91         0.1530   -0.1040   -3.8590 ho        1 MOL      0.406981
    187 O26        -0.7060   -2.9510   -2.4690 oh        1 MOL     -0.893443
    188 H92        -1.6000   -3.1650   -2.7170 ho        1 MOL      0.406981
    189 H93        -0.1880   -3.1340   -3.2530 ho        1 MOL      0.406981
@<TRIPOS>BOND
     1    1    2 1   
     2    1    4 1   
     3    1    5 1   
     4    1    6 1   
     5    2    3 2   
     6    2    7 1   
     7    7    8 1   
     8    7   15 1   
     9    8    9 1   
    10    8   11 1   
    11    8   16 1   
    12    9   10 2   
    13    9   19 1   
    14   11   12 1   
    15   11   17 1   
    16   11   18 1   
    17   12   13 1   
    18   12   14 1   
    19   19   20 1   
    20   19   28 1   
    21   20   21 1   
    22   20   23 1   
    23   20   29 1   
    24   21   22 2   
    25   21   41 1   
    26   23   24 1   
    27   23   30 1   
    28   23   31 1   
    29   24   25 1   
    30   24   32 1   
    31   24   33 1   
    32   25   26 1   
    33   25   34 1   
    34   25   35 1   
    35   26   27 1   
    36   26   36 1   
    37   26   37 1   
    38   27   38 1   
    39   27   39 1   
    40   27   40 1   
    41   41   42 1   
    42   41   49 1   
    43   42   43 1   
    44   42   45 1   
    45   42   50 1   
    46   43   44 2   
    47   43   53 1   
    48   45   46 1   
    49   45   51 1   
    50   45   52 1   
    51   46   47 1   
    52   46   48 1   
    53   53   54 1   
    54   53   57 1   
    55   54   55 1   
    56   54   58 1   
    57   54   59 1   
    58   55   56 2   
    59   55   60 1   
    60   60   61 1   
    61   60   68 1   
    62   61   62 1   
    63   61   64 1   
    64   61   69 1   
    65   62   63 2   
    66   62   72 1   
    67   64   65 1   
    68   64   70 1   
    69   64   71 1   
    70   65   66 1   
    71   65   67 1   
    72   72   73 1   
    73   72   76 1   
    74   73   74 1   
    75   73   77 1   
    76   73   78 1   
    77   74   75 2   
    78   74   79 1   
    79   79   80 1   
    80   79   86 1   
    81   80   81 1   
    82   80   83 1   
    83   80   87 1   
    84   81   82 2   
    85   81   93 1   
    86   83   84 1   
    87   83   85 1   
    88   83   88 1   
    89   84   90 1   
    90   84   91 1   
    91   84   92 1   
    92   85   89 1   
    93   93   94 1   
    94   93  101 1   
    95   94   95 1   
    96   94   97 1   
    97   94  102 1   
    98   95   96 2   
    99   95  112 1   
   100   97   98 1   
   101   97   99 1   
   102   97  103 1   
   103   98  100 1   
   104   98  104 1   
   105   98  105 1   
   106   99  106 1   
   107   99  107 1   
   108   99  108 1   
   109  100  109 1   
   110  100  110 1   
   111  100  111 1   
   112  112  113 1   
   113  112  119 1   
   114  113  114 1   
   115  113  116 1   
   116  113  120 1   
   117  114  115 2   
   118  114  126 1   
   119  116  117 1   
   120  116  118 1   
   121  116  121 1   
   122  117  123 1   
   123  117  124 1   
   124  117  125 1   
   125  118  122 1   
   126  126  127 1   
   127  126  133 1   
   128  127  128 1   
   129  127  130 1   
   130  127  134 1   
   131  128  129 2   
   132  128  140 1   
   133  130  131 1   
   134  130  132 1   
   135  130  135 1   
   136  131  137 1   
   137  131  138 1   
   138  131  139 1   
   139  132  136 1   
   140  140  141 1   
   141  140  149 1   
   142  141  142 1   
   143  141  144 1   
   144  141  150 1   
   145  142  143 2   
   146  142  162 1   
   147  144  145 1   
   148  144  151 1   
   149  144  152 1   
   150  145  146 1   
   151  145  153 1   
   152  145  154 1   
   153  146  147 1   
   154  146  155 1   
   155  146  156 1   
   156  147  148 1   
   157  147  157 1   
   158  147  158 1   
   159  148  159 1   
   160  148  160 1   
   161  148  161 1   
   162  162  163 1   
   163  162  171 1   
   164  163  164 1   
   165  163  166 1   
   166  163  172 1   
   167  164  165 2   
   168  164  177 1   
   169  166  167 1   
   170  166  173 1   
   171  166  174 1   
   172  167  168 1   
   173  167  175 1   
   174  167  176 1   
   175  168  169 1   
   176  168  170 1   
   177  177  178 1   
   178  177  182 1   
   179  178  179 1   
   180  178  180 1   
   181  178  181 1   
   182  184  185 1   
   183  184  186 1   
   184  187  188 1   
   185  187  189 1   
@<TRIPOS>SUBSTRUCTURE
     1 MOL         1 TEMP              0 ****  ****    0 ROOT
