@<TRIPOS>MOLECULE
MOL
  186   183     1     0     0
SMALL
resp


@<TRIPOS>ATOM
      1 C1         -0.6280   -2.6970   -6.0900 c3        1 MOL     -0.317963
      2 C2         -0.9160   -2.6770   -4.6440 c         1 MOL      0.817897
      3 O1         -0.0350   -3.0160   -3.8410 o         1 MOL     -0.590702
      4 H1          0.4500   -2.7530   -6.2450 hc        1 MOL      0.067663
      5 H2         -1.1050   -3.5640   -6.5450 hc        1 MOL      0.067663
      6 H3         -1.0140   -1.7870   -6.5510 hc        1 MOL      0.067663
      7 N1         -2.1700   -2.4340   -4.2800 n         1 MOL     -0.735932
      8 C3         -2.5780   -2.3760   -2.9130 c3        1 MOL      0.130530
      9 C4         -2.9160   -3.7680   -2.3390 c         1 MOL      0.758652
     10 O2         -3.3150   -4.6740   -2.9990 o         1 MOL     -0.631465
     11 C5         -3.6890   -1.2430   -2.9230 c3        1 MOL     -0.226004
     12 C6         -4.3090   -0.9740   -1.5460 c         1 MOL      0.717800
     13 O3         -5.4050   -0.4320   -1.4170 o         1 MOL     -0.671008
     14 O4         -3.7160   -1.4440   -0.5490 o         1 MOL     -0.671008
     15 H4         -2.8330   -2.4010   -5.0440 hn        1 MOL      0.351278
     16 H5         -1.7850   -2.0190   -2.2550 h1        1 MOL      0.059826
     17 H6         -4.4620   -1.5870   -3.6030 hc        1 MOL      0.051481
     18 H7         -3.2600   -0.3720   -3.4210 hc        1 MOL      0.051481
     19 N2         -2.7970   -3.9600   -1.0430 n         1 MOL     -0.406670
     20 C7         -2.6910   -5.2790   -0.2590 c3        1 MOL      0.051308
     21 C8         -3.7340   -5.1280    0.8370 c         1 MOL      0.406195
     22 O5         -4.4200   -6.1190    1.1040 o         1 MOL     -0.604412
     23 C9         -1.2750   -5.5030    0.2550 c3        1 MOL      0.172368
     24 C10        -0.3100   -5.7960   -0.9690 c3        1 MOL      0.067976
     25 C11        -1.1260   -6.6890    1.2120 c3        1 MOL     -0.307146
     26 C12        -0.5210   -7.2510   -1.5910 c3        1 MOL     -0.338924
     27 H8         -2.6390   -3.1930   -0.4000 hn        1 MOL     -0.025019
     28 H9         -2.9410   -6.1370   -0.8690 h1        1 MOL      0.084642
     29 H10        -0.9270   -4.5820    0.7330 hc        1 MOL      0.017777
     30 H11         0.7260   -5.5820   -0.6950 hc        1 MOL      0.025899
     31 H12        -0.4130   -5.0880   -1.7840 hc        1 MOL      0.025899
     32 H13        -1.6500   -6.4930    2.1500 hc        1 MOL      0.064972
     33 H14        -1.5810   -7.5370    0.6930 hc        1 MOL      0.064972
     34 H15        -0.0840   -6.9510    1.4040 hc        1 MOL      0.064972
     35 H16        -1.5850   -7.4660   -1.6410 hc        1 MOL      0.074248
     36 H17        -0.0950   -7.2620   -2.5970 hc        1 MOL      0.074248
     37 H18        -0.0750   -8.0490   -0.9880 hc        1 MOL      0.074248
     38 N3         -4.0050   -3.9970    1.4020 n         1 MOL     -0.119821
     39 C13        -4.9780   -3.8620    2.4920 c3        1 MOL      0.074705
     40 C14        -6.2700   -3.1410    2.0700 c         1 MOL      0.426033
     41 O6         -7.1850   -3.0330    2.8650 o         1 MOL     -0.545479
     42 C15        -4.3510   -3.2060    3.7230 c3        1 MOL     -0.324326
     43 C16        -3.5540   -1.9410    3.4620 c         1 MOL      0.834254
     44 O7         -2.6890   -1.6780    4.3160 o         1 MOL     -0.719356
     45 O8         -3.7400   -1.2220    2.4610 o         1 MOL     -0.719356
     46 H19        -3.5120   -3.1620    1.1050 hn        1 MOL      0.170266
     47 H20        -5.3640   -4.8460    2.7900 h1        1 MOL      0.082812
     48 H21        -3.5740   -3.9010    4.0470 hc        1 MOL      0.076523
     49 H22        -5.0690   -3.0420    4.5320 hc        1 MOL      0.076523
     50 N4         -6.4090   -2.5450    0.8730 n         1 MOL     -0.295652
     51 C17        -7.7230   -2.0630    0.4780 c3        1 MOL     -0.174325
     52 C18        -8.0120   -0.5920    0.9120 c         1 MOL      0.477283
     53 O9         -9.1620   -0.1330    0.6360 o         1 MOL     -0.610805
     54 H23        -5.6870   -2.5040    0.1730 hn        1 MOL      0.266225
     55 H24        -8.5720   -2.6220    0.8800 h1        1 MOL      0.104134
     56 H25        -7.7910   -2.0910   -0.6080 h1        1 MOL      0.104134
     57 N5         -7.0680    0.1940    1.3360 n         1 MOL     -0.198156
     58 C19        -7.3300    1.6820    1.5840 c3        1 MOL     -0.031624
     59 C20        -7.5210    2.5020    0.3010 c         1 MOL      0.430020
     60 O10        -8.3840    3.4060    0.3880 o         1 MOL     -0.562141
     61 C21        -6.1870    2.2710    2.4300 c3        1 MOL     -0.289893
     62 C22        -4.7700    1.8810    2.0100 c         1 MOL      0.667552
     63 O11        -4.5470    1.6600    0.8100 o         1 MOL     -0.685263
     64 O12        -3.8590    1.8430    2.8660 o         1 MOL     -0.685263
     65 H26        -6.1410   -0.1870    1.4410 hn        1 MOL      0.239669
     66 H27        -8.1740    1.6790    2.2630 h1        1 MOL      0.110173
     67 H28        -6.3610    1.9640    3.4640 hc        1 MOL      0.086120
     68 H29        -6.2250    3.3620    2.5010 hc        1 MOL      0.086120
     69 N6         -6.7990    2.2570   -0.8100 n         1 MOL     -0.060425
     70 C23        -6.6990    3.1040   -1.9790 c3        1 MOL     -0.328121
     71 C24        -5.5560    4.1450   -1.9930 c         1 MOL      0.654316
     72 O13        -5.6380    5.1740   -2.6730 o         1 MOL     -0.598575
     73 H30        -6.2680    1.4010   -0.8480 hn        1 MOL      0.185608
     74 H31        -7.5880    3.7270   -2.0940 h1        1 MOL      0.113052
     75 H32        -6.4130    2.4600   -2.8180 h1        1 MOL      0.113052
     76 N7         -4.5000    3.8420   -1.1960 n         1 MOL     -0.473637
     77 C25        -3.1900    4.3600   -1.4460 c3        1 MOL      0.253782
     78 C26        -2.0810    3.1470   -1.4510 c         1 MOL      0.399111
     79 O14        -2.4080    2.0180   -0.9720 o         1 MOL     -0.569742
     80 C27        -2.8440    5.4260   -0.3560 c3        1 MOL     -0.122753
     81 C28        -3.6900    6.6380   -0.5160 c3        1 MOL     -0.244026
     82 C29        -3.3370    7.7700    0.4690 c         1 MOL      0.677267
     83 N8         -4.1310    8.0380    1.4660 n         1 MOL     -0.779074
     84 O15        -2.4260    8.5120    0.2800 o         1 MOL     -0.581310
     85 H33        -4.5670    2.9790   -0.6790 hn        1 MOL      0.326684
     86 H34        -3.2390    4.8370   -2.4130 h1        1 MOL      0.014281
     87 H35        -1.8100    5.7660   -0.4250 hc        1 MOL      0.065751
     88 H36        -3.1380    4.9890    0.5980 hc        1 MOL      0.065751
     89 H37        -4.7460    6.4200   -0.3360 hc        1 MOL      0.079193
     90 H38        -3.5270    6.9920   -1.5390 hc        1 MOL      0.079193
     91 H39        -4.9680    7.4740    1.5930 hn        1 MOL      0.349928
     92 H40        -4.0510    8.9380    1.9260 hn        1 MOL      0.349928
     93 N9         -0.8660    3.3390   -1.9810 n         1 MOL     -0.490532
     94 C30         0.2150    2.3160   -2.0120 c3        1 MOL      0.455977
     95 C31         1.4710    2.8010   -1.2580 c         1 MOL      0.270744
     96 O16         1.9160    3.8770   -1.5240 o         1 MOL     -0.530784
     97 C32         0.6430    1.9660   -3.4690 c3        1 MOL      0.243299
     98 C33         1.7480    0.9220   -3.5750 c3        1 MOL     -0.235324
     99 C34        -0.5760    1.5840   -4.3310 c3        1 MOL     -0.235324
    100 H41        -0.5470    4.2520   -2.2850 hn        1 MOL      0.269061
    101 H42        -0.2550    1.4570   -1.5230 h1        1 MOL     -0.100585
    102 H43         1.0220    2.9070   -3.8580 hc        1 MOL     -0.071820
    103 H44         1.4870    0.0370   -2.9970 hc        1 MOL      0.042988
    104 H45         1.9050    0.6620   -4.6260 hc        1 MOL      0.042988
    105 H46         2.6830    1.3270   -3.1880 hc        1 MOL      0.042988
    106 H47        -0.3610    1.1870   -5.3210 hc        1 MOL      0.042988
    107 H48        -1.1220    0.8010   -3.7990 hc        1 MOL      0.042988
    108 H49        -1.2480    2.4430   -4.3710 hc        1 MOL      0.042988
    109 N10         1.9130    2.0600   -0.1910 n         1 MOL     -0.127978
    110 C35         3.1040    2.3850    0.5450 c3        1 MOL      0.103527
    111 C36         4.3650    1.9090   -0.2240 c         1 MOL      0.372673
    112 O17         4.2750    1.1240   -1.1800 o         1 MOL     -0.310235
    113 C37         3.0480    1.6980    1.9770 c3        1 MOL     -0.653806
    114 C38         4.0810    2.1950    2.9850 c         1 MOL      0.859927
    115 N11         3.9350    3.3710    3.5370 n         1 MOL     -0.820818
    116 O18         5.0710    1.5180    3.3270 o         1 MOL     -0.532802
    117 H50         1.4340    1.2210    0.0820 hn        1 MOL      0.187720
    118 H51         3.1380    3.4670    0.6530 h1        1 MOL      0.043477
    119 H52         3.1850    0.6230    1.8550 hc        1 MOL      0.211638
    120 H53         2.0380    1.9590    2.2960 hc        1 MOL      0.211638
    121 H54         3.3060    4.0300    3.1000 hn        1 MOL      0.361726
    122 H55         4.4990    3.7680    4.2740 hn        1 MOL      0.361726
    123 N12         5.5620    2.3390    0.1680 n         1 MOL     -0.542909
    124 C39         6.7970    1.8540   -0.3170 c3        1 MOL      0.453213
    125 C40         6.8370    0.3290   -0.2030 c         1 MOL      0.674846
    126 O19         7.2280   -0.2900   -1.1900 o         1 MOL     -0.569557
    127 C41         7.8460    2.6000    0.4760 c3        1 MOL     -0.079096
    128 C42         9.2260    2.2460   -0.0130 ca        1 MOL      0.031349
    129 C43         9.5240    2.4050   -1.3610 ca        1 MOL     -0.251670
    130 C44        10.0750    1.5540    0.8690 ca        1 MOL     -0.251670
    131 C45        10.6910    1.8490   -1.8520 ca        1 MOL     -0.154351
    132 C46        11.3300    1.0450    0.4170 ca        1 MOL     -0.154351
    133 C47        11.6440    1.2040   -0.9790 ca        1 MOL      0.227098
    134 O20        12.7400    0.6200   -1.4770 oh        1 MOL     -0.481896
    135 H56         5.5530    2.9290    0.9820 hn        1 MOL      0.215192
    136 H57         6.8620    2.0410   -1.3930 h1        1 MOL     -0.066130
    137 H58         7.7190    2.3730    1.5280 hc        1 MOL      0.023425
    138 H59         7.7220    3.6720    0.2980 hc        1 MOL      0.023425
    139 H60         8.9500    3.0980   -1.9520 ha        1 MOL      0.165454
    140 H61         9.8410    1.4010    1.9130 ha        1 MOL      0.165454
    141 H62        10.9750    1.9930   -2.8890 ha        1 MOL      0.120231
    142 H63        11.9620    0.5810    1.1620 ha        1 MOL      0.120231
    143 H64        13.1560    0.0900   -0.8040 ho        1 MOL      0.371228
    144 N13         6.5680   -0.2200    0.9890 n         1 MOL     -0.448295
    145 C48         6.5560   -1.6940    1.2230 c3        1 MOL     -0.111995
    146 C49         5.5400   -2.4940    0.4070 c         1 MOL      0.332116
    147 O21         5.8020   -3.7140    0.2810 o         1 MOL     -0.528653
    148 C50         6.2870   -1.9790    2.7460 c3        1 MOL      0.211933
    149 C51         7.1820   -1.2770    3.7760 c3        1 MOL     -0.373312
    150 C52         6.5770   -1.3650    5.1440 c         1 MOL      0.785213
    151 O22         5.9120   -2.3530    5.5320 o         1 MOL     -0.752999
    152 O23         6.8180   -0.4600    5.9840 o         1 MOL     -0.752999
    153 H65         6.2460    0.3660    1.7390 hn        1 MOL      0.256925
    154 H66         7.5000   -2.1340    0.8970 h1        1 MOL      0.111895
    155 H67         6.3760   -3.0400    2.9600 hc        1 MOL     -0.001563
    156 H68         5.2430   -1.7350    2.9550 hc        1 MOL     -0.001563
    157 H69         7.3330   -0.2290    3.5350 hc        1 MOL      0.045011
    158 H70         8.1450   -1.7860    3.7120 hc        1 MOL      0.045011
    159 N14         4.5230   -1.9360   -0.2340 n         1 MOL     -0.011585
    160 C53         3.5340   -2.5790   -1.1040 c3        1 MOL     -0.078280
    161 C54         4.0110   -2.4390   -2.5910 c         1 MOL      0.390440
    162 O24         4.0030   -3.4270   -3.4190 o         1 MOL     -0.568578
    163 C55         2.1540   -1.8850   -0.8530 c3        1 MOL      0.062082
    164 C56         1.6900   -2.0010    0.5380 c3        1 MOL     -0.083017
    165 C57         0.3420   -1.2370    0.6090 c         1 MOL      0.646738
    166 O25        -0.7630   -1.8320    0.8600 o         1 MOL     -0.676040
    167 O26         0.3450   -0.0040    0.4360 o         1 MOL     -0.676040
    168 H71         4.3490   -0.9380   -0.1910 hn        1 MOL      0.037748
    169 H72         3.4940   -3.6370   -0.8450 h1        1 MOL      0.086453
    170 H73         1.4290   -2.3370   -1.5310 hc        1 MOL      0.035352
    171 H74         2.3450   -0.8530   -1.1500 hc        1 MOL      0.035352
    172 H75         2.3990   -1.5660    1.2500 hc        1 MOL      0.010299
    173 H76         1.5550   -3.0660    0.7500 hc        1 MOL      0.010299
    174 N15         4.3600   -1.2530   -2.9890 n         1 MOL      0.061359
    175 C58         4.9280   -0.8740   -4.2520 c3        1 MOL     -0.206187
    176 H77         6.0040   -1.0430   -4.2310 h1        1 MOL      0.082539
    177 H78         4.4820   -1.4720   -5.0460 h1        1 MOL      0.082539
    178 H79         4.7310    0.1820   -4.4370 h1        1 MOL      0.082539
    179 H80         4.2340   -0.5260   -2.3060 hn        1 MOL     -0.085102
    180 Ca1        -2.3110    0.2760    0.9440 Ca        1 MOL      1.727643
    181 O27        -1.7020    2.8710    1.8040 oh        1 MOL     -0.883696
    182 H81        -2.5810    3.0220    2.1330 ho        1 MOL      0.409455
    183 H82        -1.1250    3.0950    2.5390 ho        1 MOL      0.409455
    184 O28        -1.1000    0.2220    3.2330 oh        1 MOL     -0.883696
    185 H83        -1.7500   -0.1740    3.8090 ho        1 MOL      0.409455
    186 H84        -0.2790   -0.2230    3.4500 ho        1 MOL      0.409455
@<TRIPOS>BOND
     1    1    2 1   
     2    1    4 1   
     3    1    5 1   
     4    1    6 1   
     5    2    3 2   
     6    2    7 1   
     7    7    8 1   
     8    7   15 1   
     9    8    9 1   
    10    8   11 1   
    11    8   16 1   
    12    9   10 2   
    13    9   19 1   
    14   11   12 1   
    15   11   17 1   
    16   11   18 1   
    17   12   13 1   
    18   12   14 1   
    19   19   20 1   
    20   19   27 1   
    21   20   21 1   
    22   20   23 1   
    23   20   28 1   
    24   21   22 2   
    25   21   38 1   
    26   23   24 1   
    27   23   25 1   
    28   23   29 1   
    29   24   26 1   
    30   24   30 1   
    31   24   31 1   
    32   25   32 1   
    33   25   33 1   
    34   25   34 1   
    35   26   35 1   
    36   26   36 1   
    37   26   37 1   
    38   38   39 1   
    39   38   46 1   
    40   39   40 1   
    41   39   42 1   
    42   39   47 1   
    43   40   41 2   
    44   40   50 1   
    45   42   43 1   
    46   42   48 1   
    47   42   49 1   
    48   43   44 1   
    49   43   45 1   
    50   50   51 1   
    51   50   54 1   
    52   51   52 1   
    53   51   55 1   
    54   51   56 1   
    55   52   53 2   
    56   52   57 1   
    57   57   58 1   
    58   57   65 1   
    59   58   59 1   
    60   58   61 1   
    61   58   66 1   
    62   59   60 2   
    63   59   69 1   
    64   61   62 1   
    65   61   67 1   
    66   61   68 1   
    67   62   63 1   
    68   62   64 1   
    69   69   70 1   
    70   69   73 1   
    71   70   71 1   
    72   70   74 1   
    73   70   75 1   
    74   71   72 2   
    75   71   76 1   
    76   76   77 1   
    77   76   85 1   
    78   77   78 1   
    79   77   80 1   
    80   77   86 1   
    81   78   79 2   
    82   78   93 1   
    83   80   81 1   
    84   80   87 1   
    85   80   88 1   
    86   81   82 1   
    87   81   89 1   
    88   81   90 1   
    89   82   83 1   
    90   82   84 2   
    91   83   91 1   
    92   83   92 1   
    93   93   94 1   
    94   93  100 1   
    95   94   95 1   
    96   94   97 1   
    97   94  101 1   
    98   95   96 2   
    99   95  109 1   
   100   97   98 1   
   101   97   99 1   
   102   97  102 1   
   103   98  103 1   
   104   98  104 1   
   105   98  105 1   
   106   99  106 1   
   107   99  107 1   
   108   99  108 1   
   109  109  110 1   
   110  109  117 1   
   111  110  111 1   
   112  110  113 1   
   113  110  118 1   
   114  111  112 2   
   115  111  123 1   
   116  113  114 1   
   117  113  119 1   
   118  113  120 1   
   119  114  115 1   
   120  114  116 2   
   121  115  121 1   
   122  115  122 1   
   123  123  124 1   
   124  123  135 1   
   125  124  125 1   
   126  124  127 1   
   127  124  136 1   
   128  125  126 2   
   129  125  144 1   
   130  127  128 1   
   131  127  137 1   
   132  127  138 1   
   133  128  129 ar  
   134  128  130 ar  
   135  129  131 ar  
   136  129  139 1   
   137  130  132 ar  
   138  130  140 1   
   139  131  133 ar  
   140  131  141 1   
   141  132  133 ar  
   142  132  142 1   
   143  133  134 1   
   144  134  143 1   
   145  144  145 1   
   146  144  153 1   
   147  145  146 1   
   148  145  148 1   
   149  145  154 1   
   150  146  147 2   
   151  146  159 1   
   152  148  149 1   
   153  148  155 1   
   154  148  156 1   
   155  149  150 1   
   156  149  157 1   
   157  149  158 1   
   158  150  151 1   
   159  150  152 1   
   160  159  160 1   
   161  159  168 1   
   162  160  161 1   
   163  160  163 1   
   164  160  169 1   
   165  161  162 2   
   166  161  174 1   
   167  163  164 1   
   168  163  170 1   
   169  163  171 1   
   170  164  165 1   
   171  164  172 1   
   172  164  173 1   
   173  165  166 1   
   174  165  167 1   
   175  174  175 1   
   176  174  179 1   
   177  175  176 1   
   178  175  177 1   
   179  175  178 1   
   180  181  182 1   
   181  181  183 1   
   182  184  185 1   
   183  184  186 1   
@<TRIPOS>SUBSTRUCTURE
     1 MOL         1 TEMP              0 ****  ****    0 ROOT
