@<TRIPOS>MOLECULE
MOL
  189   185     1     0     0
SMALL
resp


@<TRIPOS>ATOM
      1 C1          0.8560   -4.0810    5.6530 c3        1 MOL     -0.352440
      2 C2          1.1670   -4.1290    4.1310 c         1 MOL      0.758746
      3 O1          0.2970   -4.3310    3.2530 o         1 MOL     -0.591557
      4 H1          0.9320   -5.0850    6.0710 hc        1 MOL      0.080740
      5 H2          1.5710   -3.4260    6.1500 hc        1 MOL      0.080740
      6 H3         -0.1540   -3.7000    5.8050 hc        1 MOL      0.080740
      7 N1          2.4000   -3.8880    3.7520 n         1 MOL     -0.740666
      8 C3          2.7610   -3.7170    2.3590 c3        1 MOL      0.436543
      9 C4          2.5230   -4.9770    1.5390 c         1 MOL      0.469524
     10 O2          2.7280   -6.1340    1.9200 o         1 MOL     -0.583238
     11 C5          4.2250   -3.2090    2.2470 c3        1 MOL     -0.355142
     12 C6          4.7190   -2.7450    0.8930 c         1 MOL      0.792167
     13 O3          3.8650   -2.3270    0.0710 o         1 MOL     -0.654990
     14 O4          5.9760   -2.8830    0.7750 o         1 MOL     -0.654990
     15 H4          3.0820   -3.8270    4.4880 hn        1 MOL      0.335965
     16 H5          2.1140   -2.9390    1.9610 h1        1 MOL     -0.055794
     17 H6          4.9170   -3.9500    2.6340 hc        1 MOL      0.032624
     18 H7          4.3190   -2.3370    2.8930 hc        1 MOL      0.032624
     19 N2          1.9810   -4.6910    0.3510 n         1 MOL     -0.169834
     20 C7          1.7180   -5.5170   -0.8010 c3        1 MOL     -0.084792
     21 C8          2.5410   -5.1420   -1.9770 c         1 MOL      0.570430
     22 O5          2.9350   -6.0580   -2.7350 o         1 MOL     -0.617479
     23 C9          0.2580   -5.4570   -1.1480 c3        1 MOL      0.184812
     24 C10        -0.5320   -5.9870    0.0050 c3        1 MOL      0.092548
     25 C11        -0.1120   -6.1350   -2.4720 c3        1 MOL     -0.258294
     26 C12        -2.0340   -5.8730   -0.1590 c3        1 MOL     -0.191620
     27 H8          1.8110   -3.7260    0.0990 hn        1 MOL      0.075118
     28 H9          1.9690   -6.5410   -0.5370 h1        1 MOL      0.063980
     29 H10        -0.0720   -4.4350   -1.2920 hc        1 MOL      0.027992
     30 H11        -0.1940   -5.4060    0.8640 hc        1 MOL     -0.019306
     31 H12        -0.2660   -7.0280    0.1970 hc        1 MOL     -0.019306
     32 H13        -0.1510   -7.1980   -2.2540 hc        1 MOL      0.049129
     33 H14        -1.1400   -6.0160   -2.8170 hc        1 MOL      0.049129
     34 H15         0.5400   -5.9220   -3.3140 hc        1 MOL      0.049129
     35 H16        -2.4550   -6.0430    0.8330 hc        1 MOL      0.029869
     36 H17        -2.3170   -4.8760   -0.4700 hc        1 MOL      0.029869
     37 H18        -2.3510   -6.6850   -0.8300 hc        1 MOL      0.029869
     38 N3          3.0400   -3.9150   -2.1630 n         1 MOL     -0.336147
     39 C13         3.5790   -3.4690   -3.4570 c3        1 MOL     -0.024511
     40 C14         4.8480   -2.7390   -3.3340 c         1 MOL      0.494228
     41 O6          5.3150   -2.3260   -4.3640 o         1 MOL     -0.591605
     42 C15         2.3990   -2.6530   -4.1100 c3        1 MOL     -0.203956
     43 C16         1.9760   -1.4180   -3.2690 c         1 MOL      0.819341
     44 O7          2.7440   -0.9490   -2.3920 o         1 MOL     -0.714933
     45 O8          0.9270   -0.9130   -3.6140 o         1 MOL     -0.714933
     46 H19         3.0740   -3.2960   -1.3730 hn        1 MOL      0.189078
     47 H20         3.9260   -4.2700   -4.1140 h1        1 MOL      0.103836
     48 H21         1.5800   -3.3680   -4.1690 hc        1 MOL      0.059813
     49 H22         2.5960   -2.3310   -5.1290 hc        1 MOL      0.059813
     50 N4          5.4830   -2.6240   -2.1810 n         1 MOL     -0.231967
     51 C17         6.9150   -2.0870   -2.1920 c3        1 MOL     -0.256592
     52 C18         7.0770   -0.5250   -2.4210 c         1 MOL      0.507589
     53 O9          8.1910   -0.0780   -2.5770 o         1 MOL     -0.603595
     54 H23         4.9530   -2.8510   -1.3510 hn        1 MOL      0.144923
     55 H24         7.4280   -2.6890   -2.9450 h1        1 MOL      0.130097
     56 H25         7.2940   -2.2750   -1.1870 h1        1 MOL      0.130097
     57 N5          6.0290    0.3170   -2.4720 n         1 MOL     -0.093444
     58 C19         6.1490    1.8040   -2.7410 c3        1 MOL     -0.161785
     59 C20         6.5130    2.6440   -1.4610 c         1 MOL      0.495155
     60 O10         6.7600    3.7980   -1.6840 o         1 MOL     -0.576661
     61 C21         4.8930    2.4250   -3.3120 c3        1 MOL     -0.039154
     62 C22         3.6110    2.2320   -2.4770 c         1 MOL      0.668367
     63 O11         3.6690    1.8600   -1.2440 o         1 MOL     -0.679257
     64 O12         2.4980    2.5240   -3.0490 o         1 MOL     -0.679257
     65 H26         5.1300   -0.1280   -2.4060 hn        1 MOL      0.124506
     66 H27         6.9400    1.9770   -3.4690 h1        1 MOL      0.122628
     67 H28         4.7170    2.0280   -4.3020 hc        1 MOL      0.033614
     68 H29         4.9680    3.4990   -3.5110 hc        1 MOL      0.033614
     69 N6          6.3930    2.1420   -0.2420 n         1 MOL     -0.214228
     70 C23         6.8270    2.8880    1.0220 c3        1 MOL     -0.332254
     71 C24         5.7100    3.6210    1.7400 c         1 MOL      0.555633
     72 O13         5.9340    4.2410    2.7840 o         1 MOL     -0.621461
     73 H30         6.0640    1.1920   -0.1660 hn        1 MOL      0.179369
     74 H31         7.6220    3.6200    0.8620 h1        1 MOL      0.138530
     75 H32         7.1600    2.0960    1.6840 h1        1 MOL      0.138530
     76 N7          4.5570    3.6100    1.1490 n         1 MOL     -0.191499
     77 C25         3.3450    4.3480    1.7320 c3        1 MOL     -0.070630
     78 C26         2.2600    3.2730    1.9160 c         1 MOL      0.542958
     79 O14         2.3380    2.2450    1.2270 o         1 MOL     -0.538384
     80 C27         2.8940    5.4410    0.6980 c3        1 MOL      0.133681
     81 C28         4.0280    6.3520    0.2400 c3        1 MOL     -0.363270
     82 C29         3.7430    7.7550   -0.3070 c         1 MOL      0.660557
     83 N8          4.5050    8.2720   -1.2710 n         1 MOL     -0.791919
     84 O15         2.8220    8.4350    0.1440 o         1 MOL     -0.571127
     85 H33         4.4190    2.9670    0.3750 hn        1 MOL      0.187811
     86 H34         3.5030    4.8170    2.7040 h1        1 MOL      0.067257
     87 H35         2.1190    6.0550    1.1640 hc        1 MOL      0.028448
     88 H36         2.4260    4.9950   -0.1740 hc        1 MOL      0.028448
     89 H37         4.5260    5.8080   -0.5600 hc        1 MOL      0.121367
     90 H38         4.8040    6.3470    1.0030 hc        1 MOL      0.121367
     91 H39         5.3560    7.7640   -1.4680 hn        1 MOL      0.361150
     92 H40         4.2290    9.1590   -1.6730 hn        1 MOL      0.361150
     93 N9          1.1700    3.4770    2.6830 n         1 MOL     -0.579936
     94 C30         0.1380    2.5630    2.7830 c3        1 MOL      0.056961
     95 C31        -0.9660    3.0550    1.8220 c         1 MOL      0.534322
     96 O16        -1.2610    4.2790    1.6700 o         1 MOL     -0.587179
     97 C32        -0.3070    2.4530    4.2290 c3        1 MOL      0.219781
     98 C33        -0.8210    3.7090    4.9520 c3        1 MOL     -0.241903
     99 C34        -1.3160    1.2710    4.4660 c3        1 MOL     -0.241903
    100 H41         0.9350    4.3570    3.1180 hn        1 MOL      0.339580
    101 H42         0.4830    1.5620    2.5200 h1        1 MOL      0.067912
    102 H43         0.5820    2.1800    4.8130 hc        1 MOL     -0.030197
    103 H44        -0.9200    3.4550    6.0120 hc        1 MOL      0.048711
    104 H45        -0.1900    4.5870    4.8000 hc        1 MOL      0.048711
    105 H46        -1.8290    3.9170    4.5850 hc        1 MOL      0.048711
    106 H47        -0.8260    0.3190    4.2220 hc        1 MOL      0.048711
    107 H48        -1.6090    1.3870    5.5030 hc        1 MOL      0.048711
    108 H49        -2.1740    1.5190    3.8450 hc        1 MOL      0.048711
    109 N10        -1.5240    2.0910    1.1040 n         1 MOL     -0.233597
    110 C35        -2.6750    2.3270    0.2460 c3        1 MOL      0.218196
    111 C36        -4.0270    2.0810    0.9330 c         1 MOL      0.115307
    112 O17        -4.1020    1.5560    2.0480 o         1 MOL     -0.386053
    113 C37        -2.5090    1.4140   -1.0230 c3        1 MOL     -0.034258
    114 C38        -3.6660    1.4770   -1.9810 c         1 MOL      0.638648
    115 N11        -3.7260    2.5630   -2.7290 n         1 MOL     -0.813199
    116 O18        -4.5750    0.6960   -1.9950 o         1 MOL     -0.503893
    117 H50        -1.1950    1.1480    1.2640 hn        1 MOL      0.068820
    118 H51        -2.6410    3.3440   -0.1330 h1        1 MOL      0.027781
    119 H52        -2.3380    0.3860   -0.7230 hc        1 MOL      0.014781
    120 H53        -1.6180    1.7670   -1.5330 hc        1 MOL      0.014781
    121 H54        -2.9970    3.2490   -2.7590 hn        1 MOL      0.387875
    122 H55        -4.4090    2.4170   -3.4580 hn        1 MOL      0.387875
    123 N12        -5.2020    2.4270    0.2960 n         1 MOL     -0.024484
    124 C39        -6.5310    2.2310    0.8280 c3        1 MOL     -0.046246
    125 C40        -7.0340    0.7740    0.7010 c         1 MOL      0.563313
    126 O19        -7.9750    0.3320    1.3850 o         1 MOL     -0.656846
    127 C41        -7.5840    3.2120    0.2240 c3        1 MOL      0.018014
    128 C42        -7.7610    3.1560   -1.2550 ca        1 MOL      0.062170
    129 C43        -8.5440    2.1410   -1.8920 ca        1 MOL     -0.251272
    130 C44        -6.8390    3.9170   -2.0540 ca        1 MOL     -0.251272
    131 C45        -8.5830    2.0200   -3.3600 ca        1 MOL     -0.206399
    132 C46        -6.9190    3.8080   -3.4890 ca        1 MOL     -0.206399
    133 C47        -7.8870    2.9710   -4.1170 ca        1 MOL      0.321356
    134 O20        -8.0060    3.0560   -5.4300 oh        1 MOL     -0.527190
    135 H56        -5.1840    2.9100   -0.5870 hn        1 MOL      0.075859
    136 H57        -6.3740    2.3900    1.8950 h1        1 MOL      0.056660
    137 H58        -7.2860    4.2200    0.5150 hc        1 MOL      0.003402
    138 H59        -8.5730    3.1020    0.6620 hc        1 MOL      0.003402
    139 H60        -9.0430    1.4420   -1.2350 ha        1 MOL      0.162860
    140 H61        -6.1900    4.6280   -1.5780 ha        1 MOL      0.162860
    141 H62        -9.1320    1.2460   -3.8800 ha        1 MOL      0.123621
    142 H63        -6.4520    4.5030   -4.1720 ha        1 MOL      0.123621
    143 H64        -8.7380    2.4960   -5.6990 ho        1 MOL      0.414100
    144 N13        -6.2660   -0.0670    0.0490 n         1 MOL     -0.021341
    145 C48        -6.2860   -1.5720    0.0990 c3        1 MOL     -0.232423
    146 C49        -5.1420   -2.2570    0.9390 c         1 MOL      0.456350
    147 O21        -4.8150   -3.4320    0.7380 o         1 MOL     -0.503270
    148 C50        -6.4420   -2.1910   -1.3060 c3        1 MOL      0.061127
    149 C51        -7.7780   -1.6860   -1.7960 c3        1 MOL     -0.081540
    150 C52        -8.0700   -2.3740   -3.1570 c         1 MOL      0.620586
    151 O22        -8.2270   -3.6330   -3.2310 o         1 MOL     -0.704595
    152 O23        -7.9460   -1.7660   -4.2040 o         1 MOL     -0.704595
    153 H65        -5.5360    0.3820   -0.4870 hn        1 MOL      0.101325
    154 H66        -7.0960   -1.9380    0.7290 h1        1 MOL      0.162594
    155 H67        -6.5350   -3.2740   -1.2390 hc        1 MOL      0.036411
    156 H68        -5.6800   -1.8360   -1.9930 hc        1 MOL      0.036411
    157 H69        -7.8880   -0.6070   -1.8310 hc        1 MOL     -0.023101
    158 H70        -8.5520   -2.0120   -1.1020 hc        1 MOL     -0.023101
    159 N14        -4.4750   -1.4850    1.8190 n         1 MOL     -0.267103
    160 C53        -3.4950   -1.9600    2.8550 c3        1 MOL     -0.135672
    161 C54        -3.6460   -1.4410    4.3170 c         1 MOL      0.459883
    162 O24        -3.0890   -2.0300    5.2070 o         1 MOL     -0.517053
    163 C55        -2.0140   -1.5600    2.5350 c3        1 MOL     -0.041908
    164 C56        -1.4610   -2.1620    1.2270 c3        1 MOL     -0.343361
    165 C57        -0.0600   -1.5500    0.8170 c         1 MOL      0.827370
    166 O25         0.3390   -0.4210    1.2350 o         1 MOL     -0.760568
    167 O26         0.7290   -2.1110    0.0530 o         1 MOL     -0.760568
    168 H71        -4.9000   -0.5970    2.0400 hn        1 MOL      0.079240
    169 H72        -3.5630   -3.0410    2.8790 h1        1 MOL      0.146944
    170 H73        -1.3890   -1.8380    3.3770 hc        1 MOL      0.089952
    171 H74        -1.9500   -0.4720    2.5000 hc        1 MOL      0.089952
    172 H75        -2.1590   -1.9750    0.4170 hc        1 MOL      0.181151
    173 H76        -1.3660   -3.2480    1.2450 hc        1 MOL      0.181151
    174 N15        -4.4310   -0.3760    4.5710 n         1 MOL     -0.260864
    175 C58        -4.5750    0.2660    5.8780 c3        1 MOL     -0.169765
    176 H77        -4.4630   -0.4820    6.6640 h1        1 MOL      0.081650
    177 H78        -3.8080    1.0310    5.9940 h1        1 MOL      0.081650
    178 H79        -5.5610    0.7250    5.9520 h1        1 MOL      0.081650
    179 H80        -4.9100    0.0660    3.8040 hn        1 MOL      0.266668
    180 Ca1         2.5940   -0.0560    0.0590 Ca        1 MOL      1.701549
    181 O27         5.1210    0.0530    1.1950 oh        1 MOL     -0.808498
    182 H81         5.0600    0.1690    2.1510 ho        1 MOL      0.405930
    183 H82         5.9310   -0.4480    1.0710 ho        1 MOL      0.405930
    184 O28         2.7920   -0.4220    2.6650 oh        1 MOL     -0.808498
    185 H83         1.9400   -0.8130    2.8170 ho        1 MOL      0.405930
    186 H84         3.2870   -0.6080    3.4660 ho        1 MOL      0.405930
    187 O29         0.7670    1.2470   -1.6460 oh        1 MOL     -0.808498
    188 H85         1.4120    1.8160   -2.0540 ho        1 MOL      0.405930
    189 H86         0.6610    0.5200   -2.2480 ho        1 MOL      0.405930
@<TRIPOS>BOND
     1    1    2 1   
     2    1    4 1   
     3    1    5 1   
     4    1    6 1   
     5    2    3 2   
     6    2    7 1   
     7    7    8 1   
     8    7   15 1   
     9    8    9 1   
    10    8   11 1   
    11    8   16 1   
    12    9   10 2   
    13    9   19 1   
    14   11   12 1   
    15   11   17 1   
    16   11   18 1   
    17   12   13 1   
    18   12   14 1   
    19   19   20 1   
    20   19   27 1   
    21   20   21 1   
    22   20   23 1   
    23   20   28 1   
    24   21   22 2   
    25   21   38 1   
    26   23   24 1   
    27   23   25 1   
    28   23   29 1   
    29   24   26 1   
    30   24   30 1   
    31   24   31 1   
    32   25   32 1   
    33   25   33 1   
    34   25   34 1   
    35   26   35 1   
    36   26   36 1   
    37   26   37 1   
    38   38   39 1   
    39   38   46 1   
    40   39   40 1   
    41   39   42 1   
    42   39   47 1   
    43   40   41 2   
    44   40   50 1   
    45   42   43 1   
    46   42   48 1   
    47   42   49 1   
    48   43   44 1   
    49   43   45 1   
    50   50   51 1   
    51   50   54 1   
    52   51   52 1   
    53   51   55 1   
    54   51   56 1   
    55   52   53 2   
    56   52   57 1   
    57   57   58 1   
    58   57   65 1   
    59   58   59 1   
    60   58   61 1   
    61   58   66 1   
    62   59   60 2   
    63   59   69 1   
    64   61   62 1   
    65   61   67 1   
    66   61   68 1   
    67   62   63 1   
    68   62   64 1   
    69   69   70 1   
    70   69   73 1   
    71   70   71 1   
    72   70   74 1   
    73   70   75 1   
    74   71   72 2   
    75   71   76 1   
    76   76   77 1   
    77   76   85 1   
    78   77   78 1   
    79   77   80 1   
    80   77   86 1   
    81   78   79 2   
    82   78   93 1   
    83   80   81 1   
    84   80   87 1   
    85   80   88 1   
    86   81   82 1   
    87   81   89 1   
    88   81   90 1   
    89   82   83 1   
    90   82   84 2   
    91   83   91 1   
    92   83   92 1   
    93   93   94 1   
    94   93  100 1   
    95   94   95 1   
    96   94   97 1   
    97   94  101 1   
    98   95   96 2   
    99   95  109 1   
   100   97   98 1   
   101   97   99 1   
   102   97  102 1   
   103   98  103 1   
   104   98  104 1   
   105   98  105 1   
   106   99  106 1   
   107   99  107 1   
   108   99  108 1   
   109  109  110 1   
   110  109  117 1   
   111  110  111 1   
   112  110  113 1   
   113  110  118 1   
   114  111  112 2   
   115  111  123 1   
   116  113  114 1   
   117  113  119 1   
   118  113  120 1   
   119  114  115 1   
   120  114  116 2   
   121  115  121 1   
   122  115  122 1   
   123  123  124 1   
   124  123  135 1   
   125  124  125 1   
   126  124  127 1   
   127  124  136 1   
   128  125  126 2   
   129  125  144 1   
   130  127  128 1   
   131  127  137 1   
   132  127  138 1   
   133  128  129 ar  
   134  128  130 ar  
   135  129  131 ar  
   136  129  139 1   
   137  130  132 ar  
   138  130  140 1   
   139  131  133 ar  
   140  131  141 1   
   141  132  133 ar  
   142  132  142 1   
   143  133  134 1   
   144  134  143 1   
   145  144  145 1   
   146  144  153 1   
   147  145  146 1   
   148  145  148 1   
   149  145  154 1   
   150  146  147 2   
   151  146  159 1   
   152  148  149 1   
   153  148  155 1   
   154  148  156 1   
   155  149  150 1   
   156  149  157 1   
   157  149  158 1   
   158  150  151 1   
   159  150  152 1   
   160  159  160 1   
   161  159  168 1   
   162  160  161 1   
   163  160  163 1   
   164  160  169 1   
   165  161  162 2   
   166  161  174 1   
   167  163  164 1   
   168  163  170 1   
   169  163  171 1   
   170  164  165 1   
   171  164  172 1   
   172  164  173 1   
   173  165  166 1   
   174  165  167 1   
   175  174  175 1   
   176  174  179 1   
   177  175  176 1   
   178  175  177 1   
   179  175  178 1   
   180  181  182 1   
   181  181  183 1   
   182  184  185 1   
   183  184  186 1   
   184  187  188 1   
   185  187  189 1   
@<TRIPOS>SUBSTRUCTURE
     1 MOL         1 TEMP              0 ****  ****    0 ROOT
