@<TRIPOS>MOLECULE
MOL
  175   173     1     0     0
SMALL
resp


@<TRIPOS>ATOM
      1 C1          0.3200    3.6470    5.3970 c3        1 MOL     -0.366092
      2 C2         -0.2880    3.5920    4.0470 c         1 MOL      0.769671
      3 O1          0.3980    3.4000    3.0840 o         1 MOL     -0.540011
      4 H1         -0.1650    2.9150    6.0440 hc        1 MOL      0.081444
      5 H2          1.3840    3.4210    5.3270 hc        1 MOL      0.081444
      6 H3          0.1870    4.6440    5.8160 hc        1 MOL      0.081444
      7 N1         -1.5970    3.6890    4.0050 n         1 MOL     -0.669015
      8 C3         -2.2050    3.4410    2.6880 c3        1 MOL      0.238751
      9 C4         -2.2420    4.7010    1.8570 c         1 MOL      0.490744
     10 O2         -2.5430    5.7840    2.3750 o         1 MOL     -0.609301
     11 C5         -3.6410    2.9340    2.9770 c3        1 MOL     -0.338567
     12 C6         -4.2460    2.1550    1.8320 c         1 MOL      0.812640
     13 O3         -3.6670    1.9440    0.7200 o         1 MOL     -0.720164
     14 O4         -5.2150    1.4180    2.0500 o         1 MOL     -0.720164
     15 H4         -2.1450    3.9990    4.7990 hn        1 MOL      0.348242
     16 H5         -1.6970    2.6560    2.1260 h1        1 MOL      0.005323
     17 H6         -4.3510    3.6810    3.3380 hc        1 MOL      0.079029
     18 H7         -3.6120    2.2080    3.7900 hc        1 MOL      0.079029
     19 N2         -1.9750    4.5840    0.5950 n         1 MOL     -0.223974
     20 C7         -2.1600    5.6540   -0.3970 c3        1 MOL      0.162920
     21 C8         -3.0530    5.2230   -1.6570 c         1 MOL      0.343993
     22 O5         -3.2080    6.0050   -2.6140 o         1 MOL     -0.521399
     23 C9         -0.8070    6.2080   -0.9090 c3        1 MOL     -0.281681
     24 H8         -1.7220    3.6470    0.2990 hn        1 MOL      0.143086
     25 H9         -2.7410    6.4920   -0.0070 h1        1 MOL      0.040175
     26 H10        -0.2490    5.4700   -1.4880 hc        1 MOL      0.073632
     27 H11        -1.0680    6.9160   -1.6980 hc        1 MOL      0.073632
     28 H12        -0.0990    6.5340   -0.1540 hc        1 MOL      0.073632
     29 N3         -3.5590    3.9780   -1.7140 n         1 MOL     -0.054382
     30 C10        -4.5030    3.4920   -2.7370 c3        1 MOL     -0.114642
     31 C11        -5.7850    2.6630   -2.3110 c         1 MOL      0.449919
     32 O6         -6.5910    2.3530   -3.1870 o         1 MOL     -0.542218
     33 C12        -3.8240    2.5020   -3.7250 c3        1 MOL      0.094652
     34 C13        -3.0710    1.3220   -3.1540 c         1 MOL      0.566598
     35 O7         -1.9980    0.9430   -3.6570 o         1 MOL     -0.672239
     36 O8         -3.5000    0.8340   -2.1110 o         1 MOL     -0.672239
     37 H13        -3.5130    3.3570   -0.9140 hn        1 MOL      0.003302
     38 H14        -4.8120    4.3330   -3.3540 h1        1 MOL      0.078884
     39 H15        -3.1670    3.0790   -4.3830 hc        1 MOL     -0.010672
     40 H16        -4.5240    2.1070   -4.4650 hc        1 MOL     -0.010672
     41 N4         -5.9420    2.2740   -1.0580 n         1 MOL     -0.316072
     42 C14        -7.2150    1.5570   -0.6450 c3        1 MOL     -0.199872
     43 C15        -7.2680    0.1080   -0.9780 c         1 MOL      0.549031
     44 O9         -8.3920   -0.4260   -0.8060 o         1 MOL     -0.622707
     45 H17        -5.3040    2.4740   -0.3050 hn        1 MOL      0.248133
     46 H18        -8.0320    2.0850   -1.1390 h1        1 MOL      0.118012
     47 H19        -7.3310    1.6880    0.4330 h1        1 MOL      0.118012
     48 N5         -6.1690   -0.4950   -1.4390 n         1 MOL     -0.147079
     49 C16        -6.1050   -1.8760   -1.8840 c3        1 MOL     -0.051574
     50 C17        -6.0080   -3.0440   -0.8930 c         1 MOL      0.468800
     51 O10        -5.8440   -4.1630   -1.3510 o         1 MOL     -0.479524
     52 C18        -5.0680   -1.9570   -3.0370 c3        1 MOL     -0.189303
     53 C19        -3.6400   -2.1550   -2.5040 c         1 MOL      0.528303
     54 N6         -2.7420   -2.4590   -3.4240 n         1 MOL     -0.424932
     55 O11        -3.3770   -2.1870   -1.3240 o         1 MOL     -0.650797
     56 H20        -5.3840    0.1080   -1.6160 hn        1 MOL      0.154420
     57 H21        -7.1010   -1.9240   -2.3340 h1        1 MOL      0.089795
     58 H22        -5.1090   -1.0630   -3.6650 hc        1 MOL      0.081404
     59 H23        -5.3840   -2.7500   -3.7120 hc        1 MOL      0.081404
     60 H24        -3.0590   -2.7800   -4.3230 hn        1 MOL      0.270203
     61 H25        -1.7660   -2.4210   -3.1530 hn        1 MOL      0.270203
     62 N7         -6.1310   -2.7760    0.4270 n         1 MOL     -0.373620
     63 C20        -6.2420   -3.8870    1.4080 c3        1 MOL     -0.168483
     64 C21        -4.9050   -4.6750    1.5720 c         1 MOL      0.492144
     65 O12        -4.9160   -5.8150    2.0560 o         1 MOL     -0.572973
     66 H26        -6.2120   -1.8110    0.7260 hn        1 MOL      0.334490
     67 H27        -6.9490   -4.6600    1.1050 h1        1 MOL      0.112682
     68 H28        -6.5040   -3.5620    2.4100 h1        1 MOL      0.112682
     69 N8         -3.7560   -4.0640    1.1900 n         1 MOL     -0.017290
     70 C22        -2.3870   -4.6070    1.2820 c3        1 MOL     -0.347619
     71 C23        -1.4500   -3.4090    1.5270 c         1 MOL      0.667527
     72 O13        -1.7190   -2.3730    1.0430 o         1 MOL     -0.555719
     73 C24        -1.9850   -5.4760    0.0390 c3        1 MOL      0.642681
     74 C25        -2.5880   -6.8360   -0.0420 c3        1 MOL     -0.348303
     75 O14        -2.1950   -4.7690   -1.1940 oh        1 MOL     -0.671496
     76 H29        -3.7380   -3.2060    0.6650 hn        1 MOL     -0.077852
     77 H30        -2.4070   -5.3100    2.1150 h1        1 MOL      0.094967
     78 H31        -0.9070   -5.6470    0.1600 h1        1 MOL     -0.075521
     79 H32        -2.5790   -3.9270   -0.9360 ho        1 MOL      0.423714
     80 H33        -2.2210   -7.4470    0.7770 hc        1 MOL      0.075204
     81 H34        -3.6730   -6.7670    0.0540 hc        1 MOL      0.075204
     82 H35        -2.4240   -7.4210   -0.9460 hc        1 MOL      0.075204
     83 N9         -0.3710   -3.5310    2.2600 n         1 MOL     -0.470290
     84 C26         0.7640   -2.6320    2.1790 c3        1 MOL      0.026608
     85 C27         1.4630   -3.0150    0.9090 c         1 MOL      0.573487
     86 O15         1.9390   -4.1130    0.7620 o         1 MOL     -0.568884
     87 C28         1.6190   -2.6910    3.4920 c3        1 MOL      0.290747
     88 C29         0.9110   -2.0670    4.6980 c3        1 MOL      0.064849
     89 C30         3.0910   -2.2420    3.1770 c3        1 MOL     -0.341527
     90 C31         1.5720   -2.6500    5.9160 c3        1 MOL     -0.186542
     91 H36        -0.1440   -4.4750    2.5610 hn        1 MOL      0.251062
     92 H37         0.4590   -1.6130    1.9480 h1        1 MOL     -0.112157
     93 H38         1.6990   -3.7640    3.6940 hc        1 MOL     -0.040431
     94 H39        -0.1520   -2.3270    4.6620 hc        1 MOL     -0.002302
     95 H40         0.9530   -0.9840    4.7550 hc        1 MOL     -0.002302
     96 H41         2.9270   -1.3100    2.6410 hc        1 MOL      0.071694
     97 H42         3.7380   -2.0130    4.0250 hc        1 MOL      0.071694
     98 H43         3.5490   -2.9350    2.4760 hc        1 MOL      0.071694
     99 H44         1.2420   -2.0430    6.7620 hc        1 MOL      0.031006
    100 H45         1.2500   -3.6840    6.0380 hc        1 MOL      0.031006
    101 H46         2.6600   -2.5820    5.8180 hc        1 MOL      0.031006
    102 N10         1.6210   -2.0400   -0.0680 n         1 MOL     -0.369013
    103 C32         2.5630   -2.0610   -1.2070 c3        1 MOL      0.012241
    104 C33         3.9390   -1.5330   -0.8730 c         1 MOL      0.491536
    105 O16         4.1620   -0.8870    0.1170 o         1 MOL     -0.339486
    106 C34         1.9810   -1.3370   -2.4080 c3        1 MOL     -0.259687
    107 C35         0.5080   -1.5750   -2.4620 c         1 MOL      0.737456
    108 O17         0.0840   -2.4880   -3.2890 o         1 MOL     -0.666610
    109 O18        -0.2830   -0.8400   -1.7780 o         1 MOL     -0.666610
    110 H47         1.1320   -1.1910    0.1720 hn        1 MOL      0.280199
    111 H48         2.5790   -3.1110   -1.5050 h1        1 MOL      0.081884
    112 H49         2.5740   -1.5380   -3.2970 hc        1 MOL      0.073780
    113 H50         2.1870   -0.2730   -2.2620 hc        1 MOL      0.073780
    114 N11         4.9080   -1.8290   -1.7200 n         1 MOL     -0.613807
    115 C36         6.3060   -1.4930   -1.4970 c3        1 MOL      0.308866
    116 C37         6.6570   -0.0190   -1.2570 c         1 MOL      0.392661
    117 O19         7.3400    0.2550   -0.2470 o         1 MOL     -0.502946
    118 C38         7.2540   -2.0870   -2.5370 c3        1 MOL     -0.189754
    119 C39         8.6630   -1.9160   -2.0310 ca        1 MOL      0.157305
    120 C40         9.4580   -0.8390   -2.4120 ca        1 MOL     -0.234635
    121 C41         9.1950   -2.7790   -1.1360 ca        1 MOL     -0.234635
    122 C42        10.7950   -0.6600   -1.9730 ca        1 MOL     -0.053958
    123 C43        10.4800   -2.5190   -0.5260 ca        1 MOL     -0.053958
    124 C44        11.3540   -1.5260   -1.0170 ca        1 MOL     -0.174060
    125 H51         4.6900   -2.3110   -2.5810 hn        1 MOL      0.311770
    126 H52         6.5100   -1.9430   -0.5300 h1        1 MOL      0.044837
    127 H53         7.1530   -1.5260   -3.4560 hc        1 MOL      0.059567
    128 H54         7.0250   -3.1420   -2.6510 hc        1 MOL      0.059567
    129 H55         9.0090   -0.0380   -2.9780 ha        1 MOL      0.125342
    130 H56         8.6490   -3.6600   -0.8430 ha        1 MOL      0.125342
    131 H57        11.2930    0.2400   -2.2780 ha        1 MOL      0.098312
    132 H58        10.8120   -3.2050    0.2320 ha        1 MOL      0.098312
    133 H59        12.3400   -1.3920   -0.5790 ha        1 MOL      0.123373
    134 N12         6.1030    0.9680   -1.9570 n         1 MOL     -0.015747
    135 C45         6.3800    2.3450   -1.6210 c3        1 MOL     -0.156187
    136 C46         5.6730    2.8040   -0.3270 c         1 MOL      0.360530
    137 O20         6.1060    3.7510    0.3430 o         1 MOL     -0.523600
    138 C47         5.8580    3.1600   -2.8470 c3        1 MOL     -0.054019
    139 C48         4.8730    2.2800   -3.5400 c3        1 MOL     -0.027058
    140 C49         5.3230    0.8950   -3.1630 c3        1 MOL      0.046301
    141 H60         7.4580    2.4330   -1.5400 h1        1 MOL      0.110848
    142 H61         5.3820    4.0660   -2.4810 hc        1 MOL      0.047967
    143 H62         6.6860    3.4670   -3.4790 hc        1 MOL      0.047967
    144 H63         3.8770    2.4120   -3.1130 hc        1 MOL      0.033978
    145 H64         4.9280    2.5020   -4.6100 hc        1 MOL      0.033978
    146 H65         4.5050    0.1700   -3.2370 h1        1 MOL     -0.005032
    147 H66         5.9650    0.5140   -3.9440 h1        1 MOL     -0.005032
    148 N13         4.6550    2.1160    0.1410 n         1 MOL     -0.059400
    149 C50         4.0020    2.3370    1.4690 c3        1 MOL     -0.150340
    150 C51         4.8090    1.7510    2.6210 c         1 MOL      0.424962
    151 O21         4.9030    2.3920    3.6880 o         1 MOL     -0.565112
    152 C52         2.6000    1.6430    1.4130 c3        1 MOL      0.046207
    153 C53         1.5950    2.2890    0.3790 c3        1 MOL     -0.326713
    154 C54         0.2390    1.6720    0.4050 c         1 MOL      0.515028
    155 O22        -0.7180    2.2120   -0.2020 o         1 MOL     -0.557618
    156 O23        -0.0190    0.5460    0.9240 o         1 MOL     -0.557618
    157 H67         4.3430    1.3200   -0.4020 hn        1 MOL      0.126532
    158 H68         3.7510    3.3970    1.6050 h1        1 MOL      0.137982
    159 H69         2.1270    1.7360    2.3920 hc        1 MOL      0.018624
    160 H70         2.7270    0.5640    1.3370 hc        1 MOL      0.018624
    161 H71         2.0190    2.1950   -0.6240 hc        1 MOL      0.121003
    162 H72         1.5300    3.3470    0.6160 hc        1 MOL      0.121003
    163 N14         5.5880    0.7260    2.4270 n         1 MOL      0.042995
    164 C55         6.6830    0.2680    3.2940 c3        1 MOL     -0.266772
    165 H73         6.3040    0.1070    4.3030 h1        1 MOL      0.096569
    166 H74         7.0870   -0.6670    2.9060 h1        1 MOL      0.096569
    167 H75         7.4690    1.0220    3.3170 h1        1 MOL      0.096569
    168 H76         5.5460    0.2380    1.5400 hn        1 MOL      0.027938
    169 Ca1        -2.2230   -0.0540   -0.1940 Ca        1 MOL      1.710365
    170 O24        -4.2610   -1.0080    1.5970 oh        1 MOL     -0.724900
    171 H77        -3.5360   -0.9850    2.2100 ho        1 MOL      0.362970
    172 H78        -4.7630   -0.2180    1.7860 ho        1 MOL      0.362970
    173 O25        -1.9330    0.0110    2.5580 oh        1 MOL     -0.724900
    174 H79        -1.0390    0.2090    2.2980 ho        1 MOL      0.362970
    175 H80        -1.9850    0.2810    3.4720 ho        1 MOL      0.362970
@<TRIPOS>BOND
     1    1    2 1   
     2    1    4 1   
     3    1    5 1   
     4    1    6 1   
     5    2    3 2   
     6    2    7 1   
     7    7    8 1   
     8    7   15 1   
     9    8    9 1   
    10    8   11 1   
    11    8   16 1   
    12    9   10 2   
    13    9   19 1   
    14   11   12 1   
    15   11   17 1   
    16   11   18 1   
    17   12   13 1   
    18   12   14 1   
    19   19   20 1   
    20   19   24 1   
    21   20   21 1   
    22   20   23 1   
    23   20   25 1   
    24   21   22 2   
    25   21   29 1   
    26   23   26 1   
    27   23   27 1   
    28   23   28 1   
    29   29   30 1   
    30   29   37 1   
    31   30   31 1   
    32   30   33 1   
    33   30   38 1   
    34   31   32 2   
    35   31   41 1   
    36   33   34 1   
    37   33   39 1   
    38   33   40 1   
    39   34   35 1   
    40   34   36 1   
    41   41   42 1   
    42   41   45 1   
    43   42   43 1   
    44   42   46 1   
    45   42   47 1   
    46   43   44 2   
    47   43   48 1   
    48   48   49 1   
    49   48   56 1   
    50   49   50 1   
    51   49   52 1   
    52   49   57 1   
    53   50   51 2   
    54   50   62 1   
    55   52   53 1   
    56   52   58 1   
    57   52   59 1   
    58   53   54 1   
    59   53   55 2   
    60   54   60 1   
    61   54   61 1   
    62   62   63 1   
    63   62   66 1   
    64   63   64 1   
    65   63   67 1   
    66   63   68 1   
    67   64   65 2   
    68   64   69 1   
    69   69   70 1   
    70   69   76 1   
    71   70   71 1   
    72   70   73 1   
    73   70   77 1   
    74   71   72 2   
    75   71   83 1   
    76   73   74 1   
    77   73   75 1   
    78   73   78 1   
    79   74   80 1   
    80   74   81 1   
    81   74   82 1   
    82   75   79 1   
    83   83   84 1   
    84   83   91 1   
    85   84   85 1   
    86   84   87 1   
    87   84   92 1   
    88   85   86 2   
    89   85  102 1   
    90   87   88 1   
    91   87   89 1   
    92   87   93 1   
    93   88   90 1   
    94   88   94 1   
    95   88   95 1   
    96   89   96 1   
    97   89   97 1   
    98   89   98 1   
    99   90   99 1   
   100   90  100 1   
   101   90  101 1   
   102  102  103 1   
   103  102  110 1   
   104  103  104 1   
   105  103  106 1   
   106  103  111 1   
   107  104  105 2   
   108  104  114 1   
   109  106  107 1   
   110  106  112 1   
   111  106  113 1   
   112  107  108 1   
   113  107  109 1   
   114  114  115 1   
   115  114  125 1   
   116  115  116 1   
   117  115  118 1   
   118  115  126 1   
   119  116  117 2   
   120  116  134 1   
   121  118  119 1   
   122  118  127 1   
   123  118  128 1   
   124  119  120 ar  
   125  119  121 ar  
   126  120  122 ar  
   127  120  129 1   
   128  121  123 ar  
   129  121  130 1   
   130  122  124 ar  
   131  122  131 1   
   132  123  124 ar  
   133  123  132 1   
   134  124  133 1   
   135  134  135 1   
   136  134  140 1   
   137  135  136 1   
   138  135  138 1   
   139  135  141 1   
   140  136  137 2   
   141  136  148 1   
   142  138  139 1   
   143  138  142 1   
   144  138  143 1   
   145  139  140 1   
   146  139  144 1   
   147  139  145 1   
   148  140  146 1   
   149  140  147 1   
   150  148  149 1   
   151  148  157 1   
   152  149  150 1   
   153  149  152 1   
   154  149  158 1   
   155  150  151 2   
   156  150  163 1   
   157  152  153 1   
   158  152  159 1   
   159  152  160 1   
   160  153  154 1   
   161  153  161 1   
   162  153  162 1   
   163  154  155 1   
   164  154  156 1   
   165  163  164 1   
   166  163  168 1   
   167  164  165 1   
   168  164  166 1   
   169  164  167 1   
   170  170  171 1   
   171  170  172 1   
   172  173  174 1   
   173  173  175 1   
@<TRIPOS>SUBSTRUCTURE
     1 MOL         1 TEMP              0 ****  ****    0 ROOT
