@<TRIPOS>MOLECULE
MOL
  189   185     1     0     0
SMALL
resp


@<TRIPOS>ATOM
      1 C1          0.7510    2.1650    5.0640 c3        1 MOL     -0.355898
      2 C2          0.0950    2.3270    3.7220 c         1 MOL      0.630916
      3 O1          0.6510    2.9480    2.8570 o         1 MOL     -0.567922
      4 H1          1.3410    1.2480    5.0710 hc        1 MOL      0.092702
      5 H2          1.4020    3.0180    5.2560 hc        1 MOL      0.092702
      6 H3         -0.0140    2.1100    5.8390 hc        1 MOL      0.092702
      7 N1         -1.1220    1.7430    3.6410 n         1 MOL     -0.633162
      8 C3         -1.8610    1.7250    2.3960 c3        1 MOL      0.313748
      9 C4         -2.3620    3.1130    2.0740 c         1 MOL      0.330487
     10 O2         -3.0950    3.7530    2.8310 o         1 MOL     -0.567582
     11 C5         -3.0900    0.8070    2.6700 c3        1 MOL     -0.485698
     12 C6         -3.8270    0.4670    1.3450 c         1 MOL      0.894097
     13 O3         -3.3450    0.8210    0.2720 o         1 MOL     -0.737191
     14 O4         -4.9330   -0.1350    1.3960 o         1 MOL     -0.737191
     15 H4         -1.4650    1.3580    4.5060 hn        1 MOL      0.350529
     16 H5         -1.2810    1.3610    1.5450 h1        1 MOL      0.060123
     17 H6         -3.6930    1.3610    3.3970 hc        1 MOL      0.120960
     18 H7         -2.6330   -0.1130    3.0410 hc        1 MOL      0.120960
     19 N2         -1.9370    3.6260    0.9440 n         1 MOL     -0.002549
     20 C7         -2.1050    4.9890    0.3940 c3        1 MOL     -0.388055
     21 C8         -3.1920    5.1060   -0.7320 c         1 MOL      0.790998
     22 O5         -3.6220    6.1640   -1.1000 o         1 MOL     -0.598525
     23 C9         -0.7220    5.5520   -0.1600 c3        1 MOL     -0.043404
     24 C10         0.4220    5.7210    0.8810 c3        1 MOL      0.162976
     25 C11         0.2070    6.4790    2.2340 c3        1 MOL     -0.047812
     26 C12        -0.5100    5.7340    3.3290 c3        1 MOL      0.085748
     27 N3         -1.4320    6.5680    4.1010 n4        1 MOL     -0.578795
     28 H8         -1.4120    2.9520    0.4040 hn        1 MOL      0.206719
     29 H9         -2.4510    5.6690    1.1800 h1        1 MOL      0.104649
     30 H10        -0.8840    6.5000   -0.6710 hc        1 MOL      0.033947
     31 H11        -0.3930    4.8590   -0.9340 hc        1 MOL      0.033947
     32 H12         1.1480    6.3300    0.3440 hc        1 MOL     -0.022707
     33 H13         0.8950    4.7610    1.0730 hc        1 MOL     -0.022707
     34 H14        -0.3650    7.3750    2.0030 hc        1 MOL      0.007776
     35 H15         1.1810    6.8080    2.6010 hc        1 MOL      0.007776
     36 H16         0.2020    5.1980    3.9630 hx        1 MOL      0.090137
     37 H17        -1.1100    4.9160    2.9300 hx        1 MOL      0.090137
     38 H18        -1.9430    6.0230    4.7790 hn        1 MOL      0.380214
     39 H19        -0.9570    7.3040    4.6070 hn        1 MOL      0.380214
     40 H20        -2.0410    6.9320    3.3770 hn        1 MOL      0.380214
     41 N4         -3.8300    4.0040   -1.1390 n         1 MOL     -0.595343
     42 C13        -4.9210    4.0130   -2.0910 c3        1 MOL      0.038225
     43 C14        -6.2630    3.3410   -1.5780 c         1 MOL      0.585285
     44 O6         -7.3340    3.7000   -1.9990 o         1 MOL     -0.546789
     45 C15        -4.4870    3.4160   -3.4220 c3        1 MOL     -0.055886
     46 C16        -3.5090    2.2380   -3.3080 c         1 MOL      0.761905
     47 O7         -2.6150    2.0520   -4.1550 o         1 MOL     -0.738794
     48 O8         -3.6750    1.3780   -2.4070 o         1 MOL     -0.738794
     49 H21        -3.4270    3.1570   -0.7480 hn        1 MOL      0.290141
     50 H22        -5.2970    5.0120   -2.3260 h1        1 MOL      0.080204
     51 H23        -3.9200    4.2190   -3.8960 hc        1 MOL      0.017226
     52 H24        -5.2740    3.1840   -4.1380 hc        1 MOL      0.017226
     53 N5         -6.0860    2.4430   -0.5700 n         1 MOL     -0.388357
     54 C17        -7.2270    1.6670    0.0030 c3        1 MOL      0.065424
     55 C18        -7.6630    0.3950   -0.8240 c         1 MOL      0.630873
     56 O9         -8.4770    0.5570   -1.7130 o         1 MOL     -0.530928
     57 H25        -5.1400    2.1470   -0.3890 hn        1 MOL      0.254426
     58 H26        -8.1320    2.2670    0.0420 h1        1 MOL      0.002782
     59 H27        -7.1050    1.2640    1.0140 h1        1 MOL      0.002782
     60 N6         -6.9290   -0.7150   -0.5810 n         1 MOL     -0.743036
     61 C19        -6.9760   -2.0110   -1.3770 c3        1 MOL      0.180743
     62 C20        -6.6990   -3.2590   -0.4900 c         1 MOL      0.388819
     63 O10        -6.6650   -4.4240   -0.9820 o         1 MOL     -0.515437
     64 C21        -6.1840   -1.9200   -2.6200 c3        1 MOL     -0.352264
     65 C22        -4.6900   -1.7180   -2.2920 c         1 MOL      0.882822
     66 O11        -4.1680   -2.0440   -1.2310 o         1 MOL     -0.784883
     67 O12        -3.8710   -1.4760   -3.2410 o         1 MOL     -0.784883
     68 H28        -6.2940   -0.6540    0.1970 hn        1 MOL      0.398060
     69 H29        -8.0230   -2.2280   -1.6300 h1        1 MOL      0.069205
     70 H30        -6.5530   -1.0960   -3.2310 hc        1 MOL      0.124171
     71 H31        -6.2700   -2.8510   -3.1910 hc        1 MOL      0.124171
     72 N7         -6.4410   -3.0170    0.7890 n         1 MOL     -0.263737
     73 C23        -6.3050   -4.0730    1.8120 c3        1 MOL     -0.167005
     74 C24        -4.9800   -4.7940    1.6640 c         1 MOL      0.519728
     75 O13        -4.7670   -5.9360    2.1390 o         1 MOL     -0.572317
     76 H32        -6.4270   -2.0520    1.0870 hn        1 MOL      0.255603
     77 H33        -7.1470   -4.7720    1.8090 h1        1 MOL      0.109820
     78 H34        -6.3760   -3.5290    2.7590 h1        1 MOL      0.109820
     79 N8         -4.0020   -4.1480    1.0240 n         1 MOL     -0.227893
     80 C25        -2.6200   -4.6280    0.8190 c3        1 MOL     -0.241310
     81 C26        -1.5700   -3.5520    1.0200 c         1 MOL      0.572839
     82 O14        -1.7280   -2.3500    0.7070 o         1 MOL     -0.577260
     83 C27        -2.4850   -5.2980   -0.5460 c3        1 MOL      0.630523
     84 C28        -3.0150   -6.7130   -0.6580 c3        1 MOL     -0.324217
     85 O15        -2.8880   -4.4940   -1.6420 oh        1 MOL     -0.680609
     86 H35        -4.1390   -3.1800    0.7480 hn        1 MOL      0.191138
     87 H36        -2.5570   -5.5210    1.4410 h1        1 MOL      0.104815
     88 H37        -1.4180   -5.4740   -0.6450 h1        1 MOL     -0.081665
     89 H38        -3.3190   -3.7080   -1.2900 ho        1 MOL      0.445853
     90 H39        -3.9420   -6.7720   -0.0990 hc        1 MOL      0.074217
     91 H40        -3.1510   -7.0560   -1.6760 hc        1 MOL      0.074217
     92 H41        -2.3220   -7.3970   -0.1660 hc        1 MOL      0.074217
     93 N9         -0.3690   -3.9360    1.4360 n         1 MOL     -0.452554
     94 C29         0.8650   -3.1330    1.6300 c3        1 MOL      0.048931
     95 C30         1.8960   -3.7270    0.7370 c         1 MOL      0.417927
     96 O16         2.0150   -4.9240    0.4980 o         1 MOL     -0.531582
     97 C31         1.3730   -3.0910    3.1100 c3        1 MOL      0.166456
     98 C32         0.2350   -2.8100    4.1690 c3        1 MOL      0.189983
     99 C33         2.6500   -2.1850    3.2360 c3        1 MOL     -0.432949
    100 C34         0.5200   -3.0870    5.6210 c3        1 MOL     -0.307946
    101 H42        -0.2540   -4.8920    1.7580 hn        1 MOL      0.249942
    102 H43         0.6010   -2.1200    1.3470 h1        1 MOL      0.101533
    103 H44         1.7000   -4.1150    3.2900 hc        1 MOL     -0.009451
    104 H45        -0.5590   -3.5040    3.8870 hc        1 MOL     -0.029428
    105 H46        -0.2820   -1.8530    4.0850 hc        1 MOL     -0.029428
    106 H47         3.4280   -2.8150    2.7890 hc        1 MOL      0.082266
    107 H48         2.4810   -1.3260    2.6020 hc        1 MOL      0.082266
    108 H49         2.8990   -1.9470    4.2780 hc        1 MOL      0.082266
    109 H50        -0.3770   -3.1460    6.2300 hc        1 MOL      0.070906
    110 H51         1.0270   -4.0460    5.6900 hc        1 MOL      0.070906
    111 H52         1.1710   -2.2580    5.8990 hc        1 MOL      0.070906
    112 N10         2.6330   -2.8130    0.1320 n         1 MOL      0.055253
    113 C35         3.7060   -3.0820   -0.7880 c3        1 MOL     -0.048209
    114 C36         5.0970   -2.7850   -0.1770 c         1 MOL      0.312417
    115 O17         5.1640   -2.0870    0.8480 o         1 MOL     -0.297913
    116 C37         3.5110   -2.3680   -2.1030 c3        1 MOL      0.012896
    117 C38         2.1350   -2.4500   -2.6750 c3        1 MOL     -0.217561
    118 O18         3.7640   -0.9680   -2.0000 oh        1 MOL     -0.444284
    119 H53         2.3080   -1.8530    0.1780 hn        1 MOL      0.010288
    120 H54         3.6220   -4.1550   -0.9400 h1        1 MOL      0.072518
    121 H55         4.3250   -2.7390   -2.7250 h1        1 MOL      0.048207
    122 H56         3.2600   -0.5500   -2.6990 ho        1 MOL      0.370716
    123 H57         1.7940   -3.4800   -2.7760 hc        1 MOL      0.092840
    124 H58         1.3870   -1.8150   -2.2070 hc        1 MOL      0.092840
    125 H59         2.1570   -2.1150   -3.7210 hc        1 MOL      0.092840
    126 N11         6.2120   -3.1720   -0.8600 n         1 MOL     -0.222429
    127 C39         7.5630   -2.7470   -0.4410 c3        1 MOL     -0.449997
    128 C40         7.7920   -1.2160   -0.3650 c         1 MOL      0.519670
    129 O19         8.2250   -0.7510    0.6820 o         1 MOL     -0.500667
    130 C41         8.7240   -3.4450   -1.2670 c3        1 MOL      0.453388
    131 C42         8.7760   -4.9570   -1.1610 c3        1 MOL     -0.383022
    132 O20         8.6850   -3.0130   -2.5830 oh        1 MOL     -0.622742
    133 H60         6.0410   -3.5530   -1.7840 hn        1 MOL      0.300492
    134 H61         7.6350   -3.1630    0.5690 h1        1 MOL      0.209735
    135 H62         9.7060   -3.0700   -1.0000 h1        1 MOL      0.007706
    136 H63         9.6190   -2.9080   -2.7810 ho        1 MOL      0.401093
    137 H64         7.8750   -5.3820   -1.6240 hc        1 MOL      0.104661
    138 H65         9.7060   -5.2280   -1.6580 hc        1 MOL      0.104661
    139 H66         8.7590   -5.1780   -0.0940 hc        1 MOL      0.104661
    140 N12         7.2000   -0.4930   -1.2960 n         1 MOL     -0.374905
    141 C43         7.1400    0.9990   -1.3190 c3        1 MOL     -0.065601
    142 C44         6.1740    1.5840   -0.2190 c         1 MOL      0.374103
    143 O21         6.4520    2.6630    0.3710 o         1 MOL     -0.542313
    144 C45         6.7160    1.2770   -2.7560 c3        1 MOL     -0.116950
    145 C46         6.3640    2.7820   -3.0350 c3        1 MOL     -0.054214
    146 C47         7.6800    3.5720   -3.0090 c3        1 MOL      0.027681
    147 C48         7.5220    5.0460   -3.4600 c3        1 MOL     -0.014016
    148 N13         7.1500    5.9180   -2.3160 n4        1 MOL     -0.359150
    149 H67         6.8040   -1.0600   -2.0300 hn        1 MOL      0.275500
    150 H68         8.1170    1.3990   -1.0190 h1        1 MOL      0.139698
    151 H69         5.7790    0.7700   -2.9750 hc        1 MOL      0.068360
    152 H70         7.4300    0.8720   -3.4630 hc        1 MOL      0.068360
    153 H71         5.6480    3.1670   -2.3170 hc        1 MOL      0.039621
    154 H72         5.9230    2.8870   -4.0280 hc        1 MOL      0.039621
    155 H73         8.3500    3.1490   -3.7490 hc        1 MOL      0.037837
    156 H74         8.2930    3.4430   -2.1140 hc        1 MOL      0.037837
    157 H75         6.7700    5.0780   -4.2570 hx        1 MOL      0.095552
    158 H76         8.4510    5.4150   -3.9050 hx        1 MOL      0.095552
    159 H77         6.3730    5.4950   -1.8240 hn        1 MOL      0.331574
    160 H78         7.9050    6.0950   -1.6670 hn        1 MOL      0.331574
    161 H79         6.8400    6.8410   -2.5650 hn        1 MOL      0.331574
    162 N14         5.0370    0.9330   -0.0410 n         1 MOL     -0.038972
    163 C49         4.0820    1.3320    0.9390 c3        1 MOL     -0.089049
    164 C50         4.5970    1.0950    2.3900 c         1 MOL      0.411324
    165 O22         4.4610    2.0190    3.1690 o         1 MOL     -0.547073
    166 C51         2.7070    0.6720    0.7860 c3        1 MOL     -0.036953
    167 C52         1.8040    1.4900   -0.1840 c3        1 MOL      0.103666
    168 C53         0.4230    0.9480   -0.4600 c         1 MOL      0.597818
    169 O23        -0.5600    1.6050   -0.8850 o         1 MOL     -0.735934
    170 O24         0.1950   -0.2300   -0.2990 o         1 MOL     -0.735934
    171 H80         4.7800    0.1780   -0.6660 hn        1 MOL      0.065535
    172 H81         3.9610    2.4120    0.9130 h1        1 MOL      0.073016
    173 H82         2.1560    0.8240    1.7140 hc        1 MOL      0.100444
    174 H83         2.8840   -0.3320    0.3950 hc        1 MOL      0.100444
    175 H84         2.3200    1.5960   -1.1440 hc        1 MOL     -0.043432
    176 H85         1.7400    2.5260    0.1620 hc        1 MOL     -0.043432
    177 N15         5.3810    0.0430    2.6070 n         1 MOL      0.022799
    178 C54         6.1410   -0.2060    3.8470 c3        1 MOL     -0.228073
    179 H86         6.6070   -1.1890    3.7950 h1        1 MOL      0.089321
    180 H87         6.9130    0.5560    3.9600 h1        1 MOL      0.089321
    181 H88         5.4650   -0.1690    4.7020 h1        1 MOL      0.089321
    182 H89         5.4460   -0.6310    1.8590 hn        1 MOL      0.059694
    183 Ca1        -2.1410   -0.4480   -1.5700 Ca        1 MOL      1.791844
    184 O25        -0.8390   -2.7110   -2.6670 oh        1 MOL     -0.837093
    185 H90        -0.5370   -2.7870   -3.5720 ho        1 MOL      0.389534
    186 H91        -1.4310   -3.4480   -2.5410 ho        1 MOL      0.389534
    187 O26        -0.8500    0.0590   -4.0390 oh        1 MOL     -0.837093
    188 H92        -0.1370    0.2840   -4.6390 ho        1 MOL      0.389534
    189 H93        -1.4740    0.7770   -4.1380 ho        1 MOL      0.389534
@<TRIPOS>BOND
     1    1    2 1   
     2    1    4 1   
     3    1    5 1   
     4    1    6 1   
     5    2    3 2   
     6    2    7 1   
     7    7    8 1   
     8    7   15 1   
     9    8    9 1   
    10    8   11 1   
    11    8   16 1   
    12    9   10 2   
    13    9   19 1   
    14   11   12 1   
    15   11   17 1   
    16   11   18 1   
    17   12   13 1   
    18   12   14 1   
    19   19   20 1   
    20   19   28 1   
    21   20   21 1   
    22   20   23 1   
    23   20   29 1   
    24   21   22 2   
    25   21   41 1   
    26   23   24 1   
    27   23   30 1   
    28   23   31 1   
    29   24   25 1   
    30   24   32 1   
    31   24   33 1   
    32   25   26 1   
    33   25   34 1   
    34   25   35 1   
    35   26   27 1   
    36   26   36 1   
    37   26   37 1   
    38   27   38 1   
    39   27   39 1   
    40   27   40 1   
    41   41   42 1   
    42   41   49 1   
    43   42   43 1   
    44   42   45 1   
    45   42   50 1   
    46   43   44 2   
    47   43   53 1   
    48   45   46 1   
    49   45   51 1   
    50   45   52 1   
    51   46   47 1   
    52   46   48 1   
    53   53   54 1   
    54   53   57 1   
    55   54   55 1   
    56   54   58 1   
    57   54   59 1   
    58   55   56 2   
    59   55   60 1   
    60   60   61 1   
    61   60   68 1   
    62   61   62 1   
    63   61   64 1   
    64   61   69 1   
    65   62   63 2   
    66   62   72 1   
    67   64   65 1   
    68   64   70 1   
    69   64   71 1   
    70   65   66 1   
    71   65   67 1   
    72   72   73 1   
    73   72   76 1   
    74   73   74 1   
    75   73   77 1   
    76   73   78 1   
    77   74   75 2   
    78   74   79 1   
    79   79   80 1   
    80   79   86 1   
    81   80   81 1   
    82   80   83 1   
    83   80   87 1   
    84   81   82 2   
    85   81   93 1   
    86   83   84 1   
    87   83   85 1   
    88   83   88 1   
    89   84   90 1   
    90   84   91 1   
    91   84   92 1   
    92   85   89 1   
    93   93   94 1   
    94   93  101 1   
    95   94   95 1   
    96   94   97 1   
    97   94  102 1   
    98   95   96 2   
    99   95  112 1   
   100   97   98 1   
   101   97   99 1   
   102   97  103 1   
   103   98  100 1   
   104   98  104 1   
   105   98  105 1   
   106   99  106 1   
   107   99  107 1   
   108   99  108 1   
   109  100  109 1   
   110  100  110 1   
   111  100  111 1   
   112  112  113 1   
   113  112  119 1   
   114  113  114 1   
   115  113  116 1   
   116  113  120 1   
   117  114  115 2   
   118  114  126 1   
   119  116  117 1   
   120  116  118 1   
   121  116  121 1   
   122  117  123 1   
   123  117  124 1   
   124  117  125 1   
   125  118  122 1   
   126  126  127 1   
   127  126  133 1   
   128  127  128 1   
   129  127  130 1   
   130  127  134 1   
   131  128  129 2   
   132  128  140 1   
   133  130  131 1   
   134  130  132 1   
   135  130  135 1   
   136  131  137 1   
   137  131  138 1   
   138  131  139 1   
   139  132  136 1   
   140  140  141 1   
   141  140  149 1   
   142  141  142 1   
   143  141  144 1   
   144  141  150 1   
   145  142  143 2   
   146  142  162 1   
   147  144  145 1   
   148  144  151 1   
   149  144  152 1   
   150  145  146 1   
   151  145  153 1   
   152  145  154 1   
   153  146  147 1   
   154  146  155 1   
   155  146  156 1   
   156  147  148 1   
   157  147  157 1   
   158  147  158 1   
   159  148  159 1   
   160  148  160 1   
   161  148  161 1   
   162  162  163 1   
   163  162  171 1   
   164  163  164 1   
   165  163  166 1   
   166  163  172 1   
   167  164  165 2   
   168  164  177 1   
   169  166  167 1   
   170  166  173 1   
   171  166  174 1   
   172  167  168 1   
   173  167  175 1   
   174  167  176 1   
   175  168  169 1   
   176  168  170 1   
   177  177  178 1   
   178  177  182 1   
   179  178  179 1   
   180  178  180 1   
   181  178  181 1   
   182  184  185 1   
   183  184  186 1   
   184  187  188 1   
   185  187  189 1   
@<TRIPOS>SUBSTRUCTURE
     1 MOL         1 TEMP              0 ****  ****    0 ROOT
