@<TRIPOS>MOLECULE
MOL
  175   173     1     0     0
SMALL
resp


@<TRIPOS>ATOM
      1 C1          0.9560    3.9110    5.6380 c3        1 MOL     -0.458216
      2 C2          0.3940    3.8920    4.2240 c         1 MOL      0.671693
      3 O1          1.2040    4.0100    3.2680 o         1 MOL     -0.546788
      4 H1          0.1580    3.6950    6.3480 hc        1 MOL      0.118338
      5 H2          1.7380    3.1560    5.7290 hc        1 MOL      0.118338
      6 H3          1.3740    4.8950    5.8500 hc        1 MOL      0.118338
      7 N1         -0.9060    3.8380    3.9680 n         1 MOL     -0.596846
      8 C3         -1.5130    3.5640    2.6360 c3        1 MOL      0.040314
      9 C4         -1.4140    4.7680    1.7340 c         1 MOL      0.685122
     10 O2         -1.6830    5.8760    2.2140 o         1 MOL     -0.607723
     11 C5         -2.9720    3.1560    2.9640 c3        1 MOL     -0.282068
     12 C6         -3.8240    2.7640    1.7860 c         1 MOL      0.816172
     13 O3         -3.2480    2.3950    0.7300 o         1 MOL     -0.695149
     14 O4         -5.0650    2.6810    1.9050 o         1 MOL     -0.695149
     15 H4         -1.4760    3.9900    4.7940 hn        1 MOL      0.327361
     16 H5         -0.8770    2.7970    2.1750 h1        1 MOL      0.150929
     17 H6         -3.5500    3.8880    3.5270 hc        1 MOL      0.057460
     18 H7         -2.8790    2.3410    3.6880 hc        1 MOL      0.057460
     19 N2         -1.2800    4.6220    0.4380 n         1 MOL     -0.538680
     20 C7         -1.4580    5.6820   -0.5740 c3        1 MOL      0.182005
     21 C8         -2.5300    5.2600   -1.5740 c         1 MOL      0.504256
     22 O5         -2.8510    6.0490   -2.4550 o         1 MOL     -0.584097
     23 C9         -0.0020    5.9260   -1.1700 c3        1 MOL     -0.227149
     24 H8         -1.2280    3.7000    0.0340 hn        1 MOL      0.321170
     25 H9         -1.7080    6.6050   -0.0620 h1        1 MOL      0.040752
     26 H10         0.6570    6.3380   -0.4120 hc        1 MOL      0.060231
     27 H11         0.4710    5.0770   -1.6520 hc        1 MOL      0.060231
     28 H12        -0.0840    6.6250   -2.0020 hc        1 MOL      0.060231
     29 N3         -3.2040    4.0890   -1.4850 n         1 MOL     -0.401460
     30 C10        -4.0980    3.6620   -2.6150 c3        1 MOL      0.222670
     31 C11        -5.4830    3.0780   -2.3090 c         1 MOL      0.262053
     32 O6         -6.3570    3.0720   -3.2060 o         1 MOL     -0.506341
     33 C12        -3.4000    2.8390   -3.6490 c3        1 MOL     -0.243701
     34 C13        -2.7090    1.5810   -3.1400 c         1 MOL      0.731768
     35 O7         -1.8500    1.0480   -3.9010 o         1 MOL     -0.701578
     36 O8         -3.0740    1.0750   -2.0390 o         1 MOL     -0.701578
     37 H13        -3.1580    3.4980   -0.6690 hn        1 MOL      0.225132
     38 H14        -4.4240    4.5690   -3.1430 h1        1 MOL      0.048214
     39 H15        -2.6180    3.4750   -4.0740 hc        1 MOL      0.053984
     40 H16        -4.0470    2.5040   -4.4540 hc        1 MOL      0.053984
     41 N4         -5.6590    2.5240   -1.0890 n         1 MOL     -0.115732
     42 C14        -6.9830    1.9340   -0.7150 c3        1 MOL     -0.108084
     43 C15        -7.2490    0.5720   -1.4580 c         1 MOL      0.418282
     44 O9         -8.4380    0.3680   -1.7950 o         1 MOL     -0.577310
     45 H17        -4.9510    2.6200   -0.3740 hn        1 MOL      0.132612
     46 H18        -7.8460    2.5580   -0.9460 h1        1 MOL      0.081911
     47 H19        -7.0970    1.8480    0.3640 h1        1 MOL      0.081911
     48 N5         -6.2480   -0.2720   -1.6220 n         1 MOL      0.028963
     49 C16        -6.4000   -1.6940   -2.0000 c3        1 MOL     -0.200917
     50 C17        -6.4880   -2.8170   -0.9230 c         1 MOL      0.385171
     51 O10        -6.6130   -3.9740   -1.3150 o         1 MOL     -0.459485
     52 C18        -5.3310   -2.0340   -3.0790 c3        1 MOL     -0.107719
     53 C19        -3.9000   -2.1950   -2.4820 c         1 MOL      0.361299
     54 N6         -2.9310   -2.4210   -3.2910 n         1 MOL     -0.555424
     55 O11        -3.6560   -2.0360   -1.2530 o         1 MOL     -0.109453
     56 H20        -5.3540   -0.0780   -1.1980 hn        1 MOL     -0.029301
     57 H21        -7.2990   -1.7710   -2.6190 h1        1 MOL      0.139525
     58 H22        -5.4110   -1.3370   -3.9210 hc        1 MOL      0.069936
     59 H23        -5.4790   -3.0270   -3.5110 hc        1 MOL      0.069936
     60 H24        -3.0440   -2.5270   -4.2870 hn        1 MOL      0.329865
     61 H25        -1.9730   -2.3920   -2.9430 hn        1 MOL      0.329865
     62 N7         -6.4290   -2.4920    0.4080 n         1 MOL     -0.164785
     63 C20        -6.5660   -3.4180    1.4690 c3        1 MOL     -0.192488
     64 C21        -5.2870   -4.3100    1.7390 c         1 MOL      0.523140
     65 O12        -5.3710   -5.2850    2.4880 o         1 MOL     -0.576982
     66 H26        -6.4950   -1.5480    0.7380 hn        1 MOL      0.189618
     67 H27        -7.3540   -4.1520    1.3170 h1        1 MOL      0.098904
     68 H28        -6.8050   -2.8980    2.3990 h1        1 MOL      0.098904
     69 N8         -4.1080   -4.0460    1.1170 n         1 MOL     -0.220866
     70 C22        -2.8350   -4.6850    1.1480 c3        1 MOL     -0.081004
     71 C23        -1.7110   -3.6750    1.3130 c         1 MOL      0.583711
     72 O13        -1.9730   -2.5050    0.9370 o         1 MOL     -0.711313
     73 C24        -2.5000   -5.5640   -0.0770 c3        1 MOL      0.502351
     74 C25        -2.9810   -7.0130    0.0230 c3        1 MOL     -0.447280
     75 O14        -2.9980   -5.0590   -1.3860 oh        1 MOL     -0.587369
     76 H29        -4.1640   -3.3510    0.3810 hn        1 MOL      0.086897
     77 H30        -2.8110   -5.3510    2.0100 h1        1 MOL      0.061066
     78 H31        -1.4240   -5.5030   -0.2750 h1        1 MOL     -0.011789
     79 H32        -2.9440   -4.0970   -1.3060 ho        1 MOL      0.274373
     80 H33        -2.3200   -7.5940    0.6810 hc        1 MOL      0.107186
     81 H34        -4.0030   -7.0830    0.4010 hc        1 MOL      0.107186
     82 H35        -3.0110   -7.4970   -0.9530 hc        1 MOL      0.107186
     83 N9         -0.5380   -4.0710    1.8230 n         1 MOL     -0.527949
     84 C26         0.6100   -3.1430    2.0000 c3        1 MOL      0.074919
     85 C27         1.5230   -3.3210    0.7730 c         1 MOL      0.473920
     86 O15         1.7610   -4.4300    0.2790 o         1 MOL     -0.592577
     87 C28         1.4350   -3.3290    3.2750 c3        1 MOL      0.213835
     88 C29         0.3610   -3.3430    4.4410 c3        1 MOL      0.089514
     89 C30         2.5400   -2.2620    3.4120 c3        1 MOL     -0.196866
     90 C31         1.0550   -3.2020    5.8180 c3        1 MOL     -0.327470
     91 H36        -0.4290   -5.0330    2.1280 hn        1 MOL      0.282399
     92 H37         0.2720   -2.1100    2.0840 h1        1 MOL      0.119522
     93 H38         1.8560   -4.3190    3.1660 hc        1 MOL     -0.050825
     94 H39        -0.2380   -4.2510    4.4100 hc        1 MOL     -0.019024
     95 H40        -0.3180   -2.5010    4.3210 hc        1 MOL     -0.019024
     96 H41         3.1040   -2.4000    4.3460 hc        1 MOL      0.034056
     97 H42         3.2480   -2.4390    2.6060 hc        1 MOL      0.034056
     98 H43         2.1610   -1.2520    3.2310 hc        1 MOL      0.034056
     99 H44         0.3720   -3.4570    6.6310 hc        1 MOL      0.075155
    100 H45         1.9370   -3.8310    5.7180 hc        1 MOL      0.075155
    101 H46         1.2710   -2.1600    6.0610 hc        1 MOL      0.075155
    102 N10         1.9080   -2.2220    0.1300 n         1 MOL     -0.011292
    103 C32         2.6540   -2.2250   -1.0850 c3        1 MOL     -0.029469
    104 C33         3.9760   -1.5760   -0.8470 c         1 MOL      0.262619
    105 O16         4.2550   -1.0860    0.2500 o         1 MOL     -0.280878
    106 C34         1.7650   -1.3750   -2.0920 c3        1 MOL     -0.198835
    107 C35         0.3070   -1.7970   -2.3390 c         1 MOL      0.792565
    108 O17        -0.5620   -1.2390   -1.5920 o         1 MOL     -0.706387
    109 O18        -0.0570   -2.5540   -3.2680 o         1 MOL     -0.706387
    110 H47         1.8360   -1.3120    0.5640 hn        1 MOL     -0.070182
    111 H48         2.6780   -3.2050   -1.5680 h1        1 MOL      0.095448
    112 H49         2.2970   -1.3520   -3.0520 hc        1 MOL      0.049577
    113 H50         1.8290   -0.3200   -1.8080 hc        1 MOL      0.049577
    114 N11         4.8420   -1.7000   -1.8020 n         1 MOL     -0.454832
    115 C36         6.2480   -1.3450   -1.5740 c3        1 MOL      0.277298
    116 C37         6.4670    0.1090   -1.1510 c         1 MOL      0.355737
    117 O19         7.1340    0.3230   -0.1180 o         1 MOL     -0.523001
    118 C38         7.1300   -1.7230   -2.7640 c3        1 MOL     -0.279625
    119 C39         8.6080   -1.7920   -2.4730 ca        1 MOL      0.143266
    120 C40         9.2060   -2.8250   -1.7760 ca        1 MOL     -0.156098
    121 C41         9.4620   -0.7750   -3.0200 ca        1 MOL     -0.156098
    122 C42        10.5970   -2.8810   -1.5790 ca        1 MOL     -0.107658
    123 C43        10.8510   -0.8840   -2.8580 ca        1 MOL     -0.107658
    124 C44        11.4320   -1.9330   -2.1520 ca        1 MOL     -0.114678
    125 H51         4.5790   -2.1080   -2.6930 hn        1 MOL      0.322521
    126 H52         6.6070   -1.8170   -0.6610 h1        1 MOL      0.062278
    127 H53         6.7720   -1.0080   -3.4990 hc        1 MOL      0.068366
    128 H54         6.7750   -2.6920   -3.1220 hc        1 MOL      0.068366
    129 H55         8.6100   -3.5750   -1.2860 ha        1 MOL      0.115777
    130 H56         9.0520    0.0530   -3.5920 ha        1 MOL      0.115777
    131 H57        10.9260   -3.6420   -0.8930 ha        1 MOL      0.107076
    132 H58        11.5100   -0.1420   -3.2900 ha        1 MOL      0.107076
    133 H59        12.5030   -2.0190   -2.0210 ha        1 MOL      0.102933
    134 N12         5.7660    1.1480   -1.6580 n         1 MOL     -0.039292
    135 C45         6.0240    2.4740   -1.2160 c3        1 MOL     -0.045716
    136 C46         5.5390    2.7690    0.1920 c         1 MOL      0.329092
    137 O20         6.0050    3.7090    0.8620 o         1 MOL     -0.540469
    138 C47         5.1920    3.3530   -2.1180 c3        1 MOL      0.107400
    139 C48         5.0390    2.4790   -3.4140 c3        1 MOL     -0.005727
    140 C49         4.8950    1.0600   -2.8200 c3        1 MOL     -0.166299
    141 H60         7.0630    2.7670   -1.2910 h1        1 MOL      0.074946
    142 H61         4.2200    3.5060   -1.6460 hc        1 MOL      0.002714
    143 H62         5.6060    4.3490   -2.2110 hc        1 MOL      0.002714
    144 H63         4.2620    2.8780   -4.0580 hc        1 MOL      0.008512
    145 H64         6.0220    2.6210   -3.8650 hc        1 MOL      0.008512
    146 H65         3.8550    0.8850   -2.5450 h1        1 MOL      0.099018
    147 H66         5.2210    0.2810   -3.4990 h1        1 MOL      0.099018
    148 N13         4.7170    1.8780    0.7300 n         1 MOL      0.009807
    149 C50         4.0340    1.8730    2.0040 c3        1 MOL     -0.133652
    150 C51         4.7370    1.0060    3.0710 c         1 MOL      0.410420
    151 O21         4.6630    1.3360    4.2430 o         1 MOL     -0.546032
    152 C52         2.5860    1.2690    1.7870 c3        1 MOL      0.068369
    153 C53         1.7980    1.9060    0.6320 c3        1 MOL     -0.118600
    154 C54         0.4200    1.2920    0.4850 c         1 MOL      0.604169
    155 O22        -0.5050    1.8150   -0.1790 o         1 MOL     -0.691937
    156 O23         0.1420    0.2180    1.1090 o         1 MOL     -0.691937
    157 H67         4.6290    1.0770    0.1240 hn        1 MOL      0.035663
    158 H68         3.9790    2.9080    2.3260 h1        1 MOL      0.120276
    159 H69         2.0380    1.4090    2.7180 hc        1 MOL      0.028078
    160 H70         2.6700    0.2090    1.5620 hc        1 MOL      0.028078
    161 H71         2.2530    1.7530   -0.3500 hc        1 MOL      0.055613
    162 H72         1.7150    2.9500    0.9490 hc        1 MOL      0.055613
    163 N14         5.4570   -0.0230    2.6080 n         1 MOL     -0.004880
    164 C55         6.4120   -0.7630    3.3590 c3        1 MOL     -0.067426
    165 H73         6.0210   -0.9510    4.3590 h1        1 MOL      0.032721
    166 H74         6.6080   -1.7130    2.8620 h1        1 MOL      0.032721
    167 H75         7.3380   -0.1930    3.4320 h1        1 MOL      0.032721
    168 H76         5.4160   -0.3110    1.6400 hn        1 MOL      0.056483
    169 Ca1        -2.2570   -0.0440    0.0710 Ca        1 MOL      1.619819
    170 O24        -4.7140   -0.0260    1.2150 oh        1 MOL     -0.816312
    171 H77        -4.7850    0.9280    1.3310 ho        1 MOL      0.401687
    172 H78        -5.2860   -0.3900    1.9010 ho        1 MOL      0.401687
    173 O25        -2.0750    0.0980    2.7320 oh        1 MOL     -0.816312
    174 H79        -1.1400   -0.1050    2.7970 ho        1 MOL      0.401687
    175 H80        -2.3550    0.2280    3.6360 ho        1 MOL      0.401687
@<TRIPOS>BOND
     1    1    2 1   
     2    1    4 1   
     3    1    5 1   
     4    1    6 1   
     5    2    3 2   
     6    2    7 1   
     7    7    8 1   
     8    7   15 1   
     9    8    9 1   
    10    8   11 1   
    11    8   16 1   
    12    9   10 2   
    13    9   19 1   
    14   11   12 1   
    15   11   17 1   
    16   11   18 1   
    17   12   13 1   
    18   12   14 1   
    19   19   20 1   
    20   19   24 1   
    21   20   21 1   
    22   20   23 1   
    23   20   25 1   
    24   21   22 2   
    25   21   29 1   
    26   23   26 1   
    27   23   27 1   
    28   23   28 1   
    29   29   30 1   
    30   29   37 1   
    31   30   31 1   
    32   30   33 1   
    33   30   38 1   
    34   31   32 2   
    35   31   41 1   
    36   33   34 1   
    37   33   39 1   
    38   33   40 1   
    39   34   35 1   
    40   34   36 1   
    41   41   42 1   
    42   41   45 1   
    43   42   43 1   
    44   42   46 1   
    45   42   47 1   
    46   43   44 2   
    47   43   48 1   
    48   48   49 1   
    49   48   56 1   
    50   49   50 1   
    51   49   52 1   
    52   49   57 1   
    53   50   51 2   
    54   50   62 1   
    55   52   53 1   
    56   52   58 1   
    57   52   59 1   
    58   53   54 1   
    59   53   55 2   
    60   54   60 1   
    61   54   61 1   
    62   62   63 1   
    63   62   66 1   
    64   63   64 1   
    65   63   67 1   
    66   63   68 1   
    67   64   65 2   
    68   64   69 1   
    69   69   70 1   
    70   69   76 1   
    71   70   71 1   
    72   70   73 1   
    73   70   77 1   
    74   71   72 2   
    75   71   83 1   
    76   73   74 1   
    77   73   75 1   
    78   73   78 1   
    79   74   80 1   
    80   74   81 1   
    81   74   82 1   
    82   75   79 1   
    83   83   84 1   
    84   83   91 1   
    85   84   85 1   
    86   84   87 1   
    87   84   92 1   
    88   85   86 2   
    89   85  102 1   
    90   87   88 1   
    91   87   89 1   
    92   87   93 1   
    93   88   90 1   
    94   88   94 1   
    95   88   95 1   
    96   89   96 1   
    97   89   97 1   
    98   89   98 1   
    99   90   99 1   
   100   90  100 1   
   101   90  101 1   
   102  102  103 1   
   103  102  110 1   
   104  103  104 1   
   105  103  106 1   
   106  103  111 1   
   107  104  105 2   
   108  104  114 1   
   109  106  107 1   
   110  106  112 1   
   111  106  113 1   
   112  107  108 1   
   113  107  109 1   
   114  114  115 1   
   115  114  125 1   
   116  115  116 1   
   117  115  118 1   
   118  115  126 1   
   119  116  117 2   
   120  116  134 1   
   121  118  119 1   
   122  118  127 1   
   123  118  128 1   
   124  119  120 ar  
   125  119  121 ar  
   126  120  122 ar  
   127  120  129 1   
   128  121  123 ar  
   129  121  130 1   
   130  122  124 ar  
   131  122  131 1   
   132  123  124 ar  
   133  123  132 1   
   134  124  133 1   
   135  134  135 1   
   136  134  140 1   
   137  135  136 1   
   138  135  138 1   
   139  135  141 1   
   140  136  137 2   
   141  136  148 1   
   142  138  139 1   
   143  138  142 1   
   144  138  143 1   
   145  139  140 1   
   146  139  144 1   
   147  139  145 1   
   148  140  146 1   
   149  140  147 1   
   150  148  149 1   
   151  148  157 1   
   152  149  150 1   
   153  149  152 1   
   154  149  158 1   
   155  150  151 2   
   156  150  163 1   
   157  152  153 1   
   158  152  159 1   
   159  152  160 1   
   160  153  154 1   
   161  153  161 1   
   162  153  162 1   
   163  154  155 1   
   164  154  156 1   
   165  163  164 1   
   166  163  168 1   
   167  164  165 1   
   168  164  166 1   
   169  164  167 1   
   170  170  171 1   
   171  170  172 1   
   172  173  174 1   
   173  173  175 1   
@<TRIPOS>SUBSTRUCTURE
     1 MOL         1 TEMP              0 ****  ****    0 ROOT
