@<TRIPOS>MOLECULE
MOL
  189   185     1     0     0
SMALL
resp


@<TRIPOS>ATOM
      1 C1         -0.0510    2.0530    5.9240 c3        1 MOL     -0.357123
      2 C2         -0.5150    1.7700    4.5170 c         1 MOL      0.751032
      3 O1          0.1730    2.2930    3.6440 o         1 MOL     -0.644981
      4 H1         -0.8300    1.7620    6.6280 hc        1 MOL      0.091278
      5 H2          0.8550    1.4840    6.1300 hc        1 MOL      0.091278
      6 H3          0.1550    3.1180    6.0330 hc        1 MOL      0.091278
      7 N1         -1.6170    1.0520    4.2450 n         1 MOL     -0.598120
      8 C3         -2.2370    1.0440    2.8930 c3        1 MOL      0.159224
      9 C4         -2.6690    2.5110    2.5250 c         1 MOL      0.443076
     10 O2         -3.6840    2.9670    2.9690 o         1 MOL     -0.540102
     11 C5         -3.3680    0.0030    2.8520 c3        1 MOL     -0.333397
     12 C6         -4.0910   -0.1470    1.4550 c         1 MOL      0.822388
     13 O3         -5.2050   -0.6650    1.4960 o         1 MOL     -0.685541
     14 O4         -3.5730    0.3240    0.4040 o         1 MOL     -0.685541
     15 H4         -2.2010    0.7250    4.9990 hn        1 MOL      0.334442
     16 H5         -1.5230    0.9130    2.0760 h1        1 MOL     -0.026484
     17 H6         -4.0890    0.1810    3.6490 hc        1 MOL      0.091774
     18 H7         -2.9090   -0.9670    3.0500 hc        1 MOL      0.091774
     19 N2         -1.9540    3.2510    1.6740 n         1 MOL     -0.057899
     20 C7         -2.1610    4.6780    1.4340 c3        1 MOL     -0.148630
     21 C8         -3.3500    4.9740    0.5200 c         1 MOL      0.474726
     22 O5         -4.0920    5.9280    0.6960 o         1 MOL     -0.573310
     23 C9         -0.8520    5.3290    1.0270 c3        1 MOL      0.035776
     24 C10        -0.8790    6.8290    0.9570 c3        1 MOL      0.042867
     25 C11         0.5080    7.5370    0.9060 c3        1 MOL     -0.068202
     26 C12         1.3950    6.8710   -0.2030 c3        1 MOL      0.087452
     27 N3          2.7860    7.3760   -0.2480 n4        1 MOL     -0.378917
     28 H8         -1.1520    2.7850    1.2840 hn        1 MOL      0.171419
     29 H9         -2.4080    5.0980    2.4080 h1        1 MOL      0.088263
     30 H10        -0.5640    5.0650    0.0130 hc        1 MOL     -0.002740
     31 H11        -0.0570    4.9250    1.6560 hc        1 MOL     -0.002740
     32 H12        -1.3120    7.3450    1.8160 hc        1 MOL      0.020173
     33 H13        -1.5660    7.1500    0.1750 hc        1 MOL      0.020173
     34 H14         1.0010    7.5060    1.8760 hc        1 MOL      0.042478
     35 H15         0.3430    8.5780    0.6370 hc        1 MOL      0.042478
     36 H16         1.0420    7.0760   -1.2080 hx        1 MOL      0.073397
     37 H17         1.4800    5.7990   -0.0430 hx        1 MOL      0.073397
     38 H18         2.8040    8.3730   -0.3580 hn        1 MOL      0.320733
     39 H19         3.2730    7.1620    0.6120 hn        1 MOL      0.320733
     40 H20         3.3420    6.9320   -0.9730 hn        1 MOL      0.320733
     41 N4         -3.5660    4.1420   -0.4810 n         1 MOL     -0.078878
     42 C13        -4.5590    4.2600   -1.5600 c3        1 MOL     -0.081441
     43 C14        -5.7960    3.3150   -1.5040 c         1 MOL      0.445113
     44 O6         -6.7540    3.4600   -2.2750 o         1 MOL     -0.507715
     45 C15        -3.8460    4.2010   -2.9240 c3        1 MOL     -0.160332
     46 C16        -2.5750    3.3670   -3.0210 c         1 MOL      0.754557
     47 O7         -1.6200    3.6830   -3.7580 o         1 MOL     -0.716516
     48 O8         -2.4660    2.3480   -2.3010 o         1 MOL     -0.716516
     49 H21        -3.1260    3.2440   -0.3890 hn        1 MOL      0.046350
     50 H22        -5.0780    5.2010   -1.4400 h1        1 MOL      0.120709
     51 H23        -3.5380    5.2430   -3.0660 hc        1 MOL      0.045784
     52 H24        -4.4960    4.0620   -3.7890 hc        1 MOL      0.045784
     53 N5         -5.8900    2.4910   -0.4370 n         1 MOL     -0.205595
     54 C17        -7.1750    1.8590    0.0260 c3        1 MOL     -0.299597
     55 C18        -7.6750    0.5930   -0.6790 c         1 MOL      0.547316
     56 O9         -8.9100    0.3870   -0.7850 o         1 MOL     -0.590027
     57 H25        -5.1850    2.5490    0.2810 hn        1 MOL      0.233550
     58 H26        -8.0310    2.5080   -0.1440 h1        1 MOL      0.136480
     59 H27        -7.0640    1.5790    1.0720 h1        1 MOL      0.136480
     60 N6         -6.7730   -0.1610   -1.2520 n         1 MOL     -0.094356
     61 C19        -7.0460   -1.4770   -1.9390 c3        1 MOL     -0.141880
     62 C20        -7.1020   -2.7060   -1.0040 c         1 MOL      0.385272
     63 O10        -7.4460   -3.8810   -1.4640 o         1 MOL     -0.527055
     64 C21        -6.0120   -1.7080   -3.0430 c3        1 MOL     -0.111108
     65 C22        -4.5480   -1.2940   -2.6930 c         1 MOL      0.638194
     66 O11        -3.9250   -0.3630   -3.2870 o         1 MOL     -0.703518
     67 O12        -4.0820   -1.8900   -1.7340 o         1 MOL     -0.703518
     68 H28        -5.8210    0.0130   -0.9660 hn        1 MOL      0.071683
     69 H29        -8.0260   -1.3180   -2.3970 h1        1 MOL      0.150429
     70 H30        -6.3840   -1.1200   -3.8830 hc        1 MOL      0.048277
     71 H31        -6.0360   -2.7560   -3.3460 hc        1 MOL      0.048277
     72 N7         -6.7480   -2.5330    0.2620 n         1 MOL     -0.204910
     73 C23        -6.5530   -3.6330    1.1220 c3        1 MOL     -0.153341
     74 C24        -5.3550   -4.4330    0.9740 c         1 MOL      0.526759
     75 O13        -5.2830   -5.5370    1.3920 o         1 MOL     -0.558994
     76 H32        -6.3800   -1.6390    0.5430 hn        1 MOL      0.256251
     77 H33        -7.3910   -4.3220    1.0120 h1        1 MOL      0.091703
     78 H34        -6.5090   -3.2850    2.1460 h1        1 MOL      0.091703
     79 N8         -4.2580   -3.8150    0.5500 n         1 MOL     -0.050530
     80 C25        -2.9140   -4.3910    0.3480 c3        1 MOL     -0.491915
     81 C26        -1.6990   -3.4470    0.4120 c         1 MOL      0.856359
     82 O14        -1.7740   -2.3360    0.0060 o         1 MOL     -0.702077
     83 C27        -2.8320   -5.1330   -0.9950 c3        1 MOL      0.515447
     84 C28        -3.9890   -6.0710   -1.3550 c3        1 MOL     -0.416540
     85 O15        -2.8180   -4.1960   -2.0410 oh        1 MOL     -0.697074
     86 H35        -4.3430   -2.8300    0.3310 hn        1 MOL      0.116637
     87 H36        -2.8290   -5.1650    1.1160 h1        1 MOL      0.112441
     88 H37        -1.9060   -5.6960   -1.0780 h1        1 MOL     -0.008571
     89 H38        -3.4370   -3.5090   -1.8020 ho        1 MOL      0.493606
     90 H39        -4.0790   -6.7760   -0.5220 hc        1 MOL      0.105465
     91 H40        -4.8830   -5.4780   -1.5400 hc        1 MOL      0.105465
     92 H41        -3.6490   -6.6730   -2.1960 hc        1 MOL      0.105465
     93 N9         -0.6100   -4.0120    0.8970 n         1 MOL     -0.592219
     94 C29         0.5790   -3.2530    1.3260 c3        1 MOL      0.019931
     95 C30         1.7790   -3.5910    0.4040 c         1 MOL      0.460371
     96 O16         2.3050   -4.7070    0.3690 o         1 MOL     -0.560590
     97 C31         0.7380   -3.5960    2.8190 c3        1 MOL      0.211672
     98 C32        -0.2870   -2.7940    3.6300 c3        1 MOL      0.073684
     99 C33         2.2450   -3.3370    3.1950 c3        1 MOL     -0.326035
    100 C34        -0.3380   -3.1980    5.1730 c3        1 MOL     -0.330723
    101 H42        -0.7140   -4.9410    1.2610 hn        1 MOL      0.299902
    102 H43         0.3390   -2.1970    1.2440 h1        1 MOL      0.098937
    103 H44         0.4890   -4.6330    3.0200 hc        1 MOL     -0.003075
    104 H45        -1.2880   -3.0380    3.2750 hc        1 MOL      0.005593
    105 H46        -0.0450   -1.7420    3.5110 hc        1 MOL      0.005593
    106 H47         2.4490   -2.2750    3.0500 hc        1 MOL      0.065473
    107 H48         2.2370   -3.6810    4.2290 hc        1 MOL      0.065473
    108 H49         3.0060   -3.9600    2.7300 hc        1 MOL      0.065473
    109 H50        -1.2730   -2.9730    5.6800 hc        1 MOL      0.080479
    110 H51        -0.3290   -4.2830    5.3070 hc        1 MOL      0.080479
    111 H52         0.4670   -2.7850    5.7750 hc        1 MOL      0.080479
    112 N10         2.2720   -2.6400   -0.3510 n         1 MOL     -0.126481
    113 C35         3.4550   -2.8250   -1.2560 c3        1 MOL     -0.045977
    114 C36         4.7570   -2.7320   -0.5250 c         1 MOL      0.338368
    115 O17         4.8820   -2.2860    0.5970 o         1 MOL     -0.258727
    116 C37         3.5080   -1.7890   -2.3550 c3        1 MOL     -0.060974
    117 C38         2.2420   -1.8330   -3.2710 c3        1 MOL     -0.025606
    118 O18         3.6660   -0.4830   -1.9180 oh        1 MOL     -0.331567
    119 H53         1.8090   -1.7460   -0.3640 hn        1 MOL      0.191718
    120 H54         3.3790   -3.7750   -1.7830 h1        1 MOL      0.120143
    121 H55         4.3590   -2.0590   -2.9720 h1        1 MOL      0.044031
    122 H56         3.1060   -0.0210   -2.5360 ho        1 MOL      0.332777
    123 H57         1.3510   -1.6100   -2.6900 hc        1 MOL      0.034057
    124 H58         2.3770   -1.2630   -4.1980 hc        1 MOL      0.034057
    125 H59         2.1100   -2.8250   -3.7070 hc        1 MOL      0.034057
    126 N11         5.9120   -2.9310   -1.1780 n         1 MOL     -0.327707
    127 C39         7.1950   -2.5580   -0.5340 c3        1 MOL     -0.075148
    128 C40         7.2980   -1.1090   -0.0610 c         1 MOL      0.336285
    129 O19         7.8890   -0.9350    0.9940 o         1 MOL     -0.503811
    130 C41         8.3730   -2.8220   -1.4290 c3        1 MOL      0.245440
    131 C42         8.6510   -4.3210   -1.6670 c3        1 MOL     -0.434397
    132 O20         8.3960   -2.2390   -2.7030 oh        1 MOL     -0.627416
    133 H60         5.9140   -3.4390   -2.0540 hn        1 MOL      0.293395
    134 H61         7.2870   -3.1120    0.3990 h1        1 MOL      0.152510
    135 H62         9.2610   -2.4360   -0.9210 h1        1 MOL      0.042006
    136 H63         9.2320   -2.4690   -3.1210 ho        1 MOL      0.404894
    137 H64         7.9670   -4.6060   -2.4610 hc        1 MOL      0.125060
    138 H65         9.6950   -4.5100   -1.9390 hc        1 MOL      0.125060
    139 H66         8.4820   -4.9110   -0.7730 hc        1 MOL      0.125060
    140 N12         6.6130   -0.1530   -0.7710 n         1 MOL      0.066659
    141 C43         6.5720    1.3080   -0.5020 c3        1 MOL     -0.104536
    142 C44         5.6820    1.7320    0.6490 c         1 MOL      0.455456
    143 O21         5.7510    2.8260    1.1930 o         1 MOL     -0.549087
    144 C45         6.1500    1.9900   -1.8160 c3        1 MOL     -0.280319
    145 C46         6.9460    1.5500   -3.1410 c3        1 MOL     -0.002189
    146 C47         8.4830    1.5970   -3.0670 c3        1 MOL     -0.054599
    147 C48         9.1560    2.9070   -2.5920 c3        1 MOL      0.112442
    148 N13        10.6090    2.6090   -2.3920 n4        1 MOL     -0.356721
    149 H67         6.1790   -0.4100   -1.6430 hn        1 MOL      0.219775
    150 H68         7.5740    1.6060   -0.1780 h1        1 MOL      0.082166
    151 H69         6.4370    3.0360   -1.6810 hc        1 MOL      0.110178
    152 H70         5.0930    1.8900   -2.0770 hc        1 MOL      0.110178
    153 H71         6.6460    2.2240   -3.9550 hc        1 MOL      0.050075
    154 H72         6.6850    0.5400   -3.4570 hc        1 MOL      0.050075
    155 H73         8.8240    1.3730   -4.0780 hc        1 MOL      0.015478
    156 H74         8.7710    0.8080   -2.3680 hc        1 MOL      0.015478
    157 H75         8.7180    3.2660   -1.6710 hx        1 MOL      0.064215
    158 H76         8.9300    3.6480   -3.3520 hx        1 MOL      0.064215
    159 H77        11.0540    3.4840   -2.1340 hn        1 MOL      0.309530
    160 H78        10.7810    1.8350   -1.7740 hn        1 MOL      0.309530
    161 H79        11.0540    2.2390   -3.2200 hn        1 MOL      0.309530
    162 N14         4.7900    0.7940    1.0070 n         1 MOL      0.171334
    163 C49         3.9080    0.9110    2.1730 c3        1 MOL     -0.191090
    164 C50         4.4300    0.1150    3.3640 c         1 MOL      0.498758
    165 O22         4.4070    0.4970    4.5250 o         1 MOL     -0.548190
    166 C51         2.4580    0.5760    1.7330 c3        1 MOL      0.215864
    167 C52         2.0150    1.3210    0.4100 c3        1 MOL     -0.119336
    168 C53         0.5990    0.8080   -0.0370 c         1 MOL      0.520122
    169 O23         0.5910   -0.2720   -0.6200 o         1 MOL     -0.605209
    170 O24        -0.3980    1.5450   -0.0500 o         1 MOL     -0.605209
    171 H80         4.6640    0.0000    0.3840 hn        1 MOL     -0.566948
    172 H81         3.9800    1.9710    2.4170 h1        1 MOL      0.103810
    173 H82         1.8770    0.8870    2.6010 hc        1 MOL      0.005458
    174 H83         2.3840   -0.4840    1.5050 hc        1 MOL      0.005458
    175 H84         2.7070    1.1740   -0.4210 hc        1 MOL      0.050041
    176 H85         1.9800    2.4030    0.4890 hc        1 MOL      0.050041
    177 N15         5.1440   -1.0130    3.1770 n         1 MOL     -0.083033
    178 C54         6.0070   -1.6340    4.1770 c3        1 MOL     -0.278891
    179 H86         6.9930   -1.1700    4.1450 h1        1 MOL      0.106573
    180 H87         5.5730   -1.4950    5.1670 h1        1 MOL      0.106573
    181 H88         6.1000   -2.6990    3.9660 h1        1 MOL      0.106573
    182 H89         5.1820   -1.3620    2.2310 hn        1 MOL      0.152859
    183 Ca1        -1.9420   -0.1210   -1.4820 Ca        1 MOL      1.725561
    184 O25        -0.6520    0.6930   -3.6410 oh        1 MOL     -0.844958
    185 H90        -1.0840    1.5400   -3.5320 ho        1 MOL      0.400273
    186 H91        -0.6470    0.5450   -4.5840 ho        1 MOL      0.400273
    187 O26        -1.4570   -2.2620   -3.2050 oh        1 MOL     -0.844958
    188 H92        -1.1070   -2.4070   -4.0810 ho        1 MOL      0.400273
    189 H93        -1.9180   -3.0670   -2.9930 ho        1 MOL      0.400273
@<TRIPOS>BOND
     1    1    2 1   
     2    1    4 1   
     3    1    5 1   
     4    1    6 1   
     5    2    3 2   
     6    2    7 1   
     7    7    8 1   
     8    7   15 1   
     9    8    9 1   
    10    8   11 1   
    11    8   16 1   
    12    9   10 2   
    13    9   19 1   
    14   11   12 1   
    15   11   17 1   
    16   11   18 1   
    17   12   13 1   
    18   12   14 1   
    19   19   20 1   
    20   19   28 1   
    21   20   21 1   
    22   20   23 1   
    23   20   29 1   
    24   21   22 2   
    25   21   41 1   
    26   23   24 1   
    27   23   30 1   
    28   23   31 1   
    29   24   25 1   
    30   24   32 1   
    31   24   33 1   
    32   25   26 1   
    33   25   34 1   
    34   25   35 1   
    35   26   27 1   
    36   26   36 1   
    37   26   37 1   
    38   27   38 1   
    39   27   39 1   
    40   27   40 1   
    41   41   42 1   
    42   41   49 1   
    43   42   43 1   
    44   42   45 1   
    45   42   50 1   
    46   43   44 2   
    47   43   53 1   
    48   45   46 1   
    49   45   51 1   
    50   45   52 1   
    51   46   47 1   
    52   46   48 1   
    53   53   54 1   
    54   53   57 1   
    55   54   55 1   
    56   54   58 1   
    57   54   59 1   
    58   55   56 2   
    59   55   60 1   
    60   60   61 1   
    61   60   68 1   
    62   61   62 1   
    63   61   64 1   
    64   61   69 1   
    65   62   63 2   
    66   62   72 1   
    67   64   65 1   
    68   64   70 1   
    69   64   71 1   
    70   65   66 1   
    71   65   67 1   
    72   72   73 1   
    73   72   76 1   
    74   73   74 1   
    75   73   77 1   
    76   73   78 1   
    77   74   75 2   
    78   74   79 1   
    79   79   80 1   
    80   79   86 1   
    81   80   81 1   
    82   80   83 1   
    83   80   87 1   
    84   81   82 2   
    85   81   93 1   
    86   83   84 1   
    87   83   85 1   
    88   83   88 1   
    89   84   90 1   
    90   84   91 1   
    91   84   92 1   
    92   85   89 1   
    93   93   94 1   
    94   93  101 1   
    95   94   95 1   
    96   94   97 1   
    97   94  102 1   
    98   95   96 2   
    99   95  112 1   
   100   97   98 1   
   101   97   99 1   
   102   97  103 1   
   103   98  100 1   
   104   98  104 1   
   105   98  105 1   
   106   99  106 1   
   107   99  107 1   
   108   99  108 1   
   109  100  109 1   
   110  100  110 1   
   111  100  111 1   
   112  112  113 1   
   113  112  119 1   
   114  113  114 1   
   115  113  116 1   
   116  113  120 1   
   117  114  115 2   
   118  114  126 1   
   119  116  117 1   
   120  116  118 1   
   121  116  121 1   
   122  117  123 1   
   123  117  124 1   
   124  117  125 1   
   125  118  122 1   
   126  126  127 1   
   127  126  133 1   
   128  127  128 1   
   129  127  130 1   
   130  127  134 1   
   131  128  129 2   
   132  128  140 1   
   133  130  131 1   
   134  130  132 1   
   135  130  135 1   
   136  131  137 1   
   137  131  138 1   
   138  131  139 1   
   139  132  136 1   
   140  140  141 1   
   141  140  149 1   
   142  141  142 1   
   143  141  144 1   
   144  141  150 1   
   145  142  143 2   
   146  142  162 1   
   147  144  145 1   
   148  144  151 1   
   149  144  152 1   
   150  145  146 1   
   151  145  153 1   
   152  145  154 1   
   153  146  147 1   
   154  146  155 1   
   155  146  156 1   
   156  147  148 1   
   157  147  157 1   
   158  147  158 1   
   159  148  159 1   
   160  148  160 1   
   161  148  161 1   
   162  162  163 1   
   163  162  171 1   
   164  163  164 1   
   165  163  166 1   
   166  163  172 1   
   167  164  165 2   
   168  164  177 1   
   169  166  167 1   
   170  166  173 1   
   171  166  174 1   
   172  167  168 1   
   173  167  175 1   
   174  167  176 1   
   175  168  169 1   
   176  168  170 1   
   177  177  178 1   
   178  177  182 1   
   179  178  179 1   
   180  178  180 1   
   181  178  181 1   
   182  184  185 1   
   183  184  186 1   
   184  187  188 1   
   185  187  189 1   
@<TRIPOS>SUBSTRUCTURE
     1 MOL         1 TEMP              0 ****  ****    0 ROOT
