@<TRIPOS>MOLECULE
MOL
  189   185     1     0     0
SMALL
resp


@<TRIPOS>ATOM
      1 C1          0.2170    3.0260    4.8510 c3        1 MOL     -0.229612
      2 C2         -0.4030    2.5000    3.4720 c         1 MOL      0.550376
      3 O1          0.2090    2.7540    2.4880 o         1 MOL     -0.528715
      4 H1         -0.1780    4.0180    5.0720 hc        1 MOL      0.058580
      5 H2         -0.0510    2.3420    5.6560 hc        1 MOL      0.058580
      6 H3          1.3020    3.0790    4.7640 hc        1 MOL      0.058580
      7 N1         -1.6250    1.9420    3.4780 n         1 MOL     -0.541362
      8 C3         -2.3170    1.6000    2.2510 c3        1 MOL      0.233313
      9 C4         -2.8970    2.9260    1.5820 c         1 MOL      0.405894
     10 O2         -4.0680    3.1990    1.6900 o         1 MOL     -0.486750
     11 C5         -3.3320    0.5480    2.5930 c3        1 MOL     -0.154411
     12 C6         -4.0900    0.2020    1.3230 c         1 MOL      0.563189
     13 O3         -3.4690    0.2600    0.2530 o         1 MOL     -0.642487
     14 O4         -5.1020   -0.5290    1.3610 o         1 MOL     -0.642487
     15 H4         -2.0170    1.8020    4.3920 hn        1 MOL      0.305386
     16 H5         -1.5770    1.1380    1.5980 h1        1 MOL      0.028591
     17 H6         -3.8990    0.8830    3.4610 hc        1 MOL      0.043254
     18 H7         -2.8650   -0.3920    2.8720 hc        1 MOL      0.043254
     19 N2         -1.9920    3.6560    0.9300 n         1 MOL     -0.319114
     20 C7         -2.1600    5.0000    0.3650 c3        1 MOL      0.025510
     21 C8         -3.1080    5.0200   -0.8100 c         1 MOL      0.535190
     22 O5         -3.8030    6.0200   -0.9680 o         1 MOL     -0.603547
     23 C9         -0.8410    5.7290   -0.0750 c3        1 MOL     -0.346623
     24 C10        -0.7660    7.0030    0.7610 c3        1 MOL      0.219660
     25 C11        -0.6090    6.6840    2.2670 c3        1 MOL     -0.073829
     26 C12        -0.3240    8.0170    3.0090 c3        1 MOL     -0.076382
     27 N3         -1.4720    8.8620    3.0370 n4        1 MOL     -0.354177
     28 H8         -1.0680    3.2690    1.0130 hn        1 MOL      0.265037
     29 H9         -2.7350    5.5850    1.0810 h1        1 MOL      0.047106
     30 H10        -0.7970    5.8230   -1.1630 hc        1 MOL      0.135412
     31 H11        -0.0170    5.1040    0.2700 hc        1 MOL      0.135412
     32 H12        -1.7030    7.5450    0.6100 hc        1 MOL     -0.028825
     33 H13         0.0630    7.6180    0.4060 hc        1 MOL     -0.028825
     34 H14         0.2450    6.0300    2.4390 hc        1 MOL      0.064730
     35 H15        -1.5040    6.2030    2.6500 hc        1 MOL      0.064730
     36 H16         0.5500    8.4520    2.5350 hx        1 MOL      0.111916
     37 H17        -0.0260    7.7470    4.0200 hx        1 MOL      0.111916
     38 H18        -1.7130    9.4330    2.2390 hn        1 MOL      0.333131
     39 H19        -2.3040    8.3140    3.1850 hn        1 MOL      0.333131
     40 H20        -1.3930    9.3800    3.8960 hn        1 MOL      0.333131
     41 N4         -3.1760    3.9720   -1.6390 n         1 MOL     -0.346839
     42 C13        -4.1450    3.8270   -2.8150 c3        1 MOL      0.176900
     43 C14        -5.2780    2.9130   -2.4830 c         1 MOL      0.324116
     44 O6         -6.1650    2.6910   -3.3230 o         1 MOL     -0.511415
     45 C15        -3.3820    3.2830   -4.0120 c3        1 MOL     -0.344920
     46 C16        -2.4300    2.0440   -3.6730 c         1 MOL      0.856675
     47 O7         -2.5570    1.4270   -2.5850 o         1 MOL     -0.721513
     48 O8         -1.4230    1.9300   -4.3500 o         1 MOL     -0.721513
     49 H21        -2.6140    3.1430   -1.4540 hn        1 MOL      0.260788
     50 H22        -4.5460    4.7990   -3.0810 h1        1 MOL      0.081946
     51 H23        -2.6660    4.0230   -4.3700 hc        1 MOL      0.074777
     52 H24        -4.1150    3.0150   -4.7750 hc        1 MOL      0.074777
     53 N5         -5.3980    2.3960   -1.2650 n         1 MOL     -0.090757
     54 C17        -6.6490    1.9270   -0.6200 c3        1 MOL     -0.055206
     55 C18        -7.2300    0.6290   -1.2380 c         1 MOL      0.465092
     56 O9         -8.4430    0.5170   -1.4210 o         1 MOL     -0.586051
     57 H25        -4.6270    2.5810   -0.6350 hn        1 MOL      0.060046
     58 H26        -7.4530    2.6560   -0.5860 h1        1 MOL      0.077440
     59 H27        -6.5940    1.7540    0.4590 h1        1 MOL      0.077440
     60 N6         -6.4000   -0.3230   -1.4940 n         1 MOL     -0.070242
     61 C19        -6.7500   -1.6850   -2.0700 c3        1 MOL     -0.128050
     62 C20        -6.8520   -2.8040   -1.0170 c         1 MOL      0.421447
     63 O10        -7.1470   -3.9570   -1.3080 o         1 MOL     -0.523305
     64 C21        -5.7990   -2.1250   -3.1380 c3        1 MOL     -0.029765
     65 C22        -4.3350   -2.0340   -2.7720 c         1 MOL      0.681054
     66 O11        -3.6510   -1.3980   -3.6160 o         1 MOL     -0.700804
     67 O12        -3.9990   -2.2850   -1.6150 o         1 MOL     -0.700804
     68 H28        -5.4820   -0.3640   -1.0720 hn        1 MOL      0.041821
     69 H29        -7.6890   -1.7400   -2.6250 h1        1 MOL      0.142590
     70 H30        -5.9630   -1.5490   -4.0530 hc        1 MOL      0.022030
     71 H31        -6.0290   -3.1320   -3.4900 hc        1 MOL      0.022030
     72 N7         -6.7660   -2.3990    0.2590 n         1 MOL     -0.269079
     73 C23        -6.7770   -3.2310    1.4840 c3        1 MOL     -0.143293
     74 C24        -5.4700   -3.9740    1.6830 c         1 MOL      0.428592
     75 O13        -5.5970   -5.1050    2.3270 o         1 MOL     -0.551229
     76 H32        -6.3240   -1.5020    0.4080 hn        1 MOL      0.210271
     77 H33        -7.5130   -4.0140    1.2800 h1        1 MOL      0.113556
     78 H34        -7.0740   -2.7490    2.4120 h1        1 MOL      0.113556
     79 N8         -4.3620   -3.5900    1.0110 n         1 MOL     -0.183065
     80 C25        -3.1220   -4.3400    1.2170 c3        1 MOL     -0.296573
     81 C26        -1.8720   -3.4970    1.2220 c         1 MOL      0.733152
     82 O14        -1.7310   -2.4950    0.4730 o         1 MOL     -0.703382
     83 C27        -2.9300   -5.4230    0.1240 c3        1 MOL      0.560093
     84 C28        -3.6440   -6.7700    0.4180 c3        1 MOL     -0.471754
     85 O15        -3.2630   -5.0480   -1.2230 oh        1 MOL     -0.624550
     86 H35        -4.3400   -2.7130    0.4960 hn        1 MOL      0.358266
     87 H36        -3.1140   -4.8320    2.1830 h1        1 MOL      0.099897
     88 H37        -1.8840   -5.7210    0.1490 h1        1 MOL     -0.042579
     89 H38        -3.6270   -4.1620   -1.1480 ho        1 MOL      0.379768
     90 H39        -3.2640   -7.5520   -0.2370 hc        1 MOL      0.113255
     91 H40        -3.4280   -7.0290    1.4530 hc        1 MOL      0.113255
     92 H41        -4.7200   -6.7380    0.5420 hc        1 MOL      0.113255
     93 N9         -0.8700   -3.8860    2.0170 n         1 MOL     -0.535321
     94 C29         0.3110   -3.0250    2.2070 c3        1 MOL     -0.001439
     95 C30         1.4500   -3.6220    1.4240 c         1 MOL      0.428637
     96 O16         1.6900   -4.8250    1.6010 o         1 MOL     -0.557257
     97 C31         0.6400   -2.8700    3.7110 c3        1 MOL      0.141768
     98 C32        -0.5410   -2.0890    4.4060 c3        1 MOL      0.012885
     99 C33         2.0240   -2.1730    3.9420 c3        1 MOL     -0.215548
    100 C34        -0.4040   -1.9600    5.9120 c3        1 MOL     -0.263825
    101 H42        -0.9190   -4.6920    2.6260 hn        1 MOL      0.305199
    102 H43         0.2650   -1.9970    1.8450 h1        1 MOL      0.113642
    103 H44         0.7710   -3.8170    4.2430 hc        1 MOL      0.010463
    104 H45        -1.5170   -2.5340    4.2200 hc        1 MOL      0.028593
    105 H46        -0.5740   -1.1110    3.9150 hc        1 MOL      0.028593
    106 H47         2.8940   -2.7460    3.6560 hc        1 MOL      0.039511
    107 H48         2.0360   -1.2120    3.4250 hc        1 MOL      0.039511
    108 H49         2.1450   -1.9300    4.9980 hc        1 MOL      0.039511
    109 H50        -1.3170   -1.6360    6.4000 hc        1 MOL      0.065724
    110 H51        -0.1710   -2.9980    6.1730 hc        1 MOL      0.065724
    111 H52         0.4060   -1.3350    6.2910 hc        1 MOL      0.065724
    112 N10         2.1100   -2.8900    0.5410 n         1 MOL     -0.097072
    113 C35         3.3360   -3.2340   -0.1680 c3        1 MOL     -0.035142
    114 C36         4.5710   -2.6830    0.5320 c         1 MOL      0.445913
    115 O17         4.6060   -1.9210    1.4670 o         1 MOL     -0.368238
    116 C37         3.3570   -2.7070   -1.6170 c3        1 MOL      0.194880
    117 C38         2.2140   -3.4050   -2.3820 c3        1 MOL     -0.318721
    118 O18         3.1460   -1.3420   -1.7470 oh        1 MOL     -0.549448
    119 H53         1.7790   -1.9500    0.4070 hn        1 MOL      0.164427
    120 H54         3.3810   -4.3230   -0.0810 h1        1 MOL      0.067524
    121 H55         4.3620   -3.0030   -1.9330 h1        1 MOL      0.023265
    122 H56         2.2590   -1.1650   -1.4170 ho        1 MOL      0.351441
    123 H57         2.3890   -4.4850   -2.3350 hc        1 MOL      0.086541
    124 H58         1.2030   -3.2400   -2.0040 hc        1 MOL      0.086541
    125 H59         2.1990   -3.1870   -3.4490 hc        1 MOL      0.086541
    126 N11         5.7700   -3.1820    0.0970 n         1 MOL     -0.366081
    127 C39         7.0600   -2.6920    0.6210 c3        1 MOL     -0.253639
    128 C40         7.3180   -1.1760    0.4330 c         1 MOL      0.404402
    129 O19         7.7230   -0.5560    1.4240 o         1 MOL     -0.486718
    130 C41         8.3110   -3.4910    0.2010 c3        1 MOL      0.313876
    131 C42         8.2020   -4.9860    0.6080 c3        1 MOL     -0.431755
    132 O20         8.5120   -3.5910   -1.1810 oh        1 MOL     -0.554419
    133 H60         5.8290   -3.7640   -0.7300 hn        1 MOL      0.262425
    134 H61         6.9610   -2.7690    1.7030 h1        1 MOL      0.179236
    135 H62         9.1970   -2.9990    0.5830 h1        1 MOL      0.047728
    136 H63         8.4230   -2.7320   -1.5950 ho        1 MOL      0.327385
    137 H64         7.9430   -5.1040    1.6640 hc        1 MOL      0.132251
    138 H65         7.5520   -5.5570   -0.0610 hc        1 MOL      0.132251
    139 H66         9.1900   -5.4520    0.5420 hc        1 MOL      0.132251
    140 N12         6.8720   -0.5360   -0.7050 n         1 MOL     -0.227161
    141 C43         7.2060    0.9010   -0.9360 c3        1 MOL     -0.102943
    142 C44         6.1620    1.8480   -0.2840 c         1 MOL      0.421289
    143 O21         6.5400    2.9900    0.0190 o         1 MOL     -0.494859
    144 C45         7.4470    1.1380   -2.4250 c3        1 MOL      0.066975
    145 C46         8.4470    2.2400   -2.6750 c3        1 MOL     -0.064026
    146 C47         8.4890    2.5530   -4.2640 c3        1 MOL      0.004787
    147 C48         9.1560    1.3960   -5.0860 c3        1 MOL     -0.124787
    148 N13        10.6300    1.3830   -5.1070 n4        1 MOL     -0.150928
    149 H67         6.4030   -1.0290   -1.4530 hn        1 MOL      0.225642
    150 H68         8.1710    1.1120   -0.4630 h1        1 MOL      0.104465
    151 H69         6.4960    1.3290   -2.9270 hc        1 MOL      0.004725
    152 H70         7.8590    0.2260   -2.8390 hc        1 MOL      0.004725
    153 H71         9.4100    1.8280   -2.3980 hc        1 MOL      0.037905
    154 H72         8.2750    3.2240   -2.2200 hc        1 MOL      0.037905
    155 H73         9.0200    3.4720   -4.5300 hc        1 MOL      0.058342
    156 H74         7.5440    2.7160   -4.7790 hc        1 MOL      0.058342
    157 H75         8.9260    1.4660   -6.1500 hx        1 MOL      0.107919
    158 H76         8.7550    0.4700   -4.6850 hx        1 MOL      0.107919
    159 H77        11.1680    1.4350   -4.2510 hn        1 MOL      0.250436
    160 H78        10.9130    0.4860   -5.4600 hn        1 MOL      0.250436
    161 H79        10.9690    2.0490   -5.7940 hn        1 MOL      0.250436
    162 N14         4.9610    1.3370    0.0420 n         1 MOL     -0.112389
    163 C49         4.0860    1.9850    0.9320 c3        1 MOL     -0.206493
    164 C50         4.6120    2.0510    2.3910 c         1 MOL      0.415402
    165 O22         4.4840    3.1210    3.0100 o         1 MOL     -0.550365
    166 C51         2.7360    1.1610    0.8900 c3        1 MOL      0.110503
    167 C52         1.9200    1.5780   -0.3370 c3        1 MOL     -0.050517
    168 C53         0.7290    0.6680   -0.4600 c         1 MOL      0.859162
    169 O23         0.8080   -0.5570   -0.5710 o         1 MOL     -0.784792
    170 O24        -0.3590    1.1820   -0.7270 o         1 MOL     -0.784792
    171 H80         4.7520    0.4330   -0.3540 hn        1 MOL      0.150228
    172 H81         3.8750    2.9850    0.5390 h1        1 MOL      0.127452
    173 H82         2.1480    1.3220    1.7920 hc        1 MOL     -0.019314
    174 H83         2.9540    0.0890    0.8960 hc        1 MOL     -0.019314
    175 H84         2.5210    1.5100   -1.2420 hc        1 MOL     -0.002947
    176 H85         1.5150    2.5710   -0.1830 hc        1 MOL     -0.002947
    177 N15         5.2940    1.1000    2.9080 n         1 MOL     -0.080294
    178 C54         6.0250    1.1860    4.2250 c3        1 MOL     -0.171140
    179 H86         5.8110    2.1450    4.6970 h1        1 MOL      0.088407
    180 H87         5.6940    0.3780    4.8780 h1        1 MOL      0.088407
    181 H88         7.0970    1.0990    4.0530 h1        1 MOL      0.088407
    182 H89         5.2910    0.2070    2.4430 hn        1 MOL      0.143482
    183 Ca1        -1.7490   -0.8080   -1.5560 Ca        1 MOL      1.809889
    184 O25        -1.2030   -3.1780   -2.3530 oh        1 MOL     -0.863847
    185 H90        -1.5160   -4.0190   -2.0260 ho        1 MOL      0.406329
    186 H91        -1.0020   -3.3330   -3.2670 ho        1 MOL      0.406329
    187 O26        -0.6290   -0.7130   -3.9980 oh        1 MOL     -0.863847
    188 H92        -0.8250    0.1930   -4.2420 ho        1 MOL      0.406329
    189 H93        -0.4640   -1.1480   -4.8270 ho        1 MOL      0.406329
@<TRIPOS>BOND
     1    1    2 1   
     2    1    4 1   
     3    1    5 1   
     4    1    6 1   
     5    2    3 2   
     6    2    7 1   
     7    7    8 1   
     8    7   15 1   
     9    8    9 1   
    10    8   11 1   
    11    8   16 1   
    12    9   10 2   
    13    9   19 1   
    14   11   12 1   
    15   11   17 1   
    16   11   18 1   
    17   12   13 1   
    18   12   14 1   
    19   19   20 1   
    20   19   28 1   
    21   20   21 1   
    22   20   23 1   
    23   20   29 1   
    24   21   22 2   
    25   21   41 1   
    26   23   24 1   
    27   23   30 1   
    28   23   31 1   
    29   24   25 1   
    30   24   32 1   
    31   24   33 1   
    32   25   26 1   
    33   25   34 1   
    34   25   35 1   
    35   26   27 1   
    36   26   36 1   
    37   26   37 1   
    38   27   38 1   
    39   27   39 1   
    40   27   40 1   
    41   41   42 1   
    42   41   49 1   
    43   42   43 1   
    44   42   45 1   
    45   42   50 1   
    46   43   44 2   
    47   43   53 1   
    48   45   46 1   
    49   45   51 1   
    50   45   52 1   
    51   46   47 1   
    52   46   48 1   
    53   53   54 1   
    54   53   57 1   
    55   54   55 1   
    56   54   58 1   
    57   54   59 1   
    58   55   56 2   
    59   55   60 1   
    60   60   61 1   
    61   60   68 1   
    62   61   62 1   
    63   61   64 1   
    64   61   69 1   
    65   62   63 2   
    66   62   72 1   
    67   64   65 1   
    68   64   70 1   
    69   64   71 1   
    70   65   66 1   
    71   65   67 1   
    72   72   73 1   
    73   72   76 1   
    74   73   74 1   
    75   73   77 1   
    76   73   78 1   
    77   74   75 2   
    78   74   79 1   
    79   79   80 1   
    80   79   86 1   
    81   80   81 1   
    82   80   83 1   
    83   80   87 1   
    84   81   82 2   
    85   81   93 1   
    86   83   84 1   
    87   83   85 1   
    88   83   88 1   
    89   84   90 1   
    90   84   91 1   
    91   84   92 1   
    92   85   89 1   
    93   93   94 1   
    94   93  101 1   
    95   94   95 1   
    96   94   97 1   
    97   94  102 1   
    98   95   96 2   
    99   95  112 1   
   100   97   98 1   
   101   97   99 1   
   102   97  103 1   
   103   98  100 1   
   104   98  104 1   
   105   98  105 1   
   106   99  106 1   
   107   99  107 1   
   108   99  108 1   
   109  100  109 1   
   110  100  110 1   
   111  100  111 1   
   112  112  113 1   
   113  112  119 1   
   114  113  114 1   
   115  113  116 1   
   116  113  120 1   
   117  114  115 2   
   118  114  126 1   
   119  116  117 1   
   120  116  118 1   
   121  116  121 1   
   122  117  123 1   
   123  117  124 1   
   124  117  125 1   
   125  118  122 1   
   126  126  127 1   
   127  126  133 1   
   128  127  128 1   
   129  127  130 1   
   130  127  134 1   
   131  128  129 2   
   132  128  140 1   
   133  130  131 1   
   134  130  132 1   
   135  130  135 1   
   136  131  137 1   
   137  131  138 1   
   138  131  139 1   
   139  132  136 1   
   140  140  141 1   
   141  140  149 1   
   142  141  142 1   
   143  141  144 1   
   144  141  150 1   
   145  142  143 2   
   146  142  162 1   
   147  144  145 1   
   148  144  151 1   
   149  144  152 1   
   150  145  146 1   
   151  145  153 1   
   152  145  154 1   
   153  146  147 1   
   154  146  155 1   
   155  146  156 1   
   156  147  148 1   
   157  147  157 1   
   158  147  158 1   
   159  148  159 1   
   160  148  160 1   
   161  148  161 1   
   162  162  163 1   
   163  162  171 1   
   164  163  164 1   
   165  163  166 1   
   166  163  172 1   
   167  164  165 2   
   168  164  177 1   
   169  166  167 1   
   170  166  173 1   
   171  166  174 1   
   172  167  168 1   
   173  167  175 1   
   174  167  176 1   
   175  168  169 1   
   176  168  170 1   
   177  177  178 1   
   178  177  182 1   
   179  178  179 1   
   180  178  180 1   
   181  178  181 1   
   182  184  185 1   
   183  184  186 1   
   184  187  188 1   
   185  187  189 1   
@<TRIPOS>SUBSTRUCTURE
     1 MOL         1 TEMP              0 ****  ****    0 ROOT
