@<TRIPOS>MOLECULE
MOL
  176   174     1     0     0
SMALL
resp


@<TRIPOS>ATOM
      1 C1          0.9210    3.2010    6.0130 c3        1 MOL     -0.287689
      2 C2          0.4990    2.8680    4.5460 c         1 MOL      0.747175
      3 O1          1.3820    2.6420    3.7390 o         1 MOL     -0.598045
      4 H1          1.4520    4.1530    6.0310 hc        1 MOL      0.072633
      5 H2          0.0320    3.2680    6.6410 hc        1 MOL      0.072633
      6 H3          1.5750    2.4140    6.3920 hc        1 MOL      0.072633
      7 N1         -0.7600    2.6840    4.2340 n         1 MOL     -0.640614
      8 C3         -1.2280    2.4840    2.9050 c3        1 MOL     -0.024125
      9 C4         -1.4130    3.8130    2.1900 c         1 MOL      0.769485
     10 O2         -2.0600    4.7300    2.6480 o         1 MOL     -0.595336
     11 C5         -2.4650    1.5210    2.9040 c3        1 MOL     -0.124750
     12 C6         -2.9440    1.0110    1.5300 c         1 MOL      0.805955
     13 O3         -3.4110   -0.1350    1.3140 o         1 MOL     -0.818269
     14 O4         -2.7180    1.7310    0.5380 o         1 MOL     -0.818269
     15 H4         -1.4910    2.8080    4.9230 hn        1 MOL      0.344110
     16 H5         -0.5140    1.9390    2.2880 h1        1 MOL      0.044444
     17 H6         -3.3650    1.9490    3.3510 hc        1 MOL      0.039263
     18 H7         -2.2450    0.6050    3.4450 hc        1 MOL      0.039263
     19 N2         -0.8420    3.9500    0.9720 n         1 MOL     -0.565537
     20 C7         -0.8720    5.1230    0.0850 c3        1 MOL     -0.005798
     21 C8         -2.1700    5.2270   -0.7510 c         1 MOL      0.523333
     22 O5         -2.5810    6.2910   -1.0810 o         1 MOL     -0.571952
     23 C9          0.3630    5.2860   -0.8690 c3        1 MOL      0.275246
     24 C10         0.8320    6.7400   -1.2080 c3        1 MOL     -0.023064
     25 C11         1.7190    6.8680   -2.4460 c3        1 MOL     -0.092464
     26 C12         2.9770    5.9810   -2.2250 c3        1 MOL      0.041348
     27 N3          4.0300    6.3260   -3.2130 n4        1 MOL     -0.406186
     28 H8         -0.5790    3.0910    0.5100 hn        1 MOL      0.300881
     29 H9         -0.8960    5.9550    0.7920 h1        1 MOL      0.071537
     30 H10         0.1180    4.8170   -1.8260 hc        1 MOL     -0.044762
     31 H11         1.2370    4.8540   -0.3750 hc        1 MOL     -0.044762
     32 H12         1.4330    7.0640   -0.3590 hc        1 MOL      0.001130
     33 H13        -0.0710    7.3430   -1.2750 hc        1 MOL      0.001130
     34 H14         2.0900    7.8850   -2.5770 hc        1 MOL      0.044512
     35 H15         1.1870    6.6260   -3.3630 hc        1 MOL      0.044512
     36 H16         2.6830    4.9290   -2.3280 hx        1 MOL      0.116186
     37 H17         3.2990    6.0880   -1.1870 hx        1 MOL      0.116186
     38 H18         3.7970    6.0240   -4.1530 hn        1 MOL      0.335464
     39 H19         4.1240    7.3360   -3.2940 hn        1 MOL      0.335464
     40 H20         4.9290    5.9840   -2.9030 hn        1 MOL      0.335464
     41 N4         -2.8630    4.1440   -0.9750 n         1 MOL     -0.309177
     42 C13        -4.0120    4.0530   -1.8110 c3        1 MOL      0.063123
     43 C14        -5.3010    3.6000   -1.0720 c         1 MOL      0.386210
     44 O6         -6.3940    3.6700   -1.6370 o         1 MOL     -0.528547
     45 C15        -3.8290    3.2630   -3.1140 c3        1 MOL     -0.189191
     46 C16        -3.1880    1.8930   -2.9290 c         1 MOL      0.659777
     47 O7         -3.7650    1.0290   -2.2060 o         1 MOL     -0.695932
     48 O8         -1.9740    1.7830   -3.0920 o         1 MOL     -0.695932
     49 H21        -2.5420    3.2970   -0.5170 hn        1 MOL      0.302049
     50 H22        -4.2990    5.0550   -2.1450 h1        1 MOL      0.095698
     51 H23        -3.1850    3.7640   -3.8360 hc        1 MOL      0.042454
     52 H24        -4.7990    3.2100   -3.6080 hc        1 MOL      0.042454
     53 N5         -5.1300    3.1650    0.1390 n         1 MOL     -0.147160
     54 C17        -6.0750    2.5260    0.9910 c3        1 MOL     -0.350254
     55 C18        -6.7350    1.1870    0.5350 c         1 MOL      0.544467
     56 O9         -7.7990    0.8500    1.1200 o         1 MOL     -0.595058
     57 H25        -4.1760    3.0790    0.4700 hn        1 MOL      0.160103
     58 H26        -6.9430    3.1860    0.9440 h1        1 MOL      0.156840
     59 H27        -5.7020    2.4770    2.0110 h1        1 MOL      0.156840
     60 N6         -6.1560    0.4010   -0.3780 n         1 MOL     -0.161564
     61 C19        -6.6440   -0.8900   -0.8450 c3        1 MOL     -0.235862
     62 C20        -6.4430   -2.0490    0.1400 c         1 MOL      0.559977
     63 O10        -6.6750   -3.1630   -0.2370 o         1 MOL     -0.538924
     64 C21        -6.0260   -1.1670   -2.2170 c3        1 MOL     -0.006268
     65 C22        -4.7250   -1.8730   -2.2260 c         1 MOL      0.458306
     66 N7         -4.6310   -2.7550   -3.1470 n         1 MOL     -0.565870
     67 O11        -3.8390   -1.6950   -1.4670 o         1 MOL     -0.482628
     68 H28        -5.3760    0.7830   -0.8990 hn        1 MOL      0.220356
     69 H29        -7.7090   -0.7620   -1.0530 h1        1 MOL      0.145033
     70 H30        -5.9630   -0.2830   -2.8560 hc        1 MOL      0.043707
     71 H31        -6.7230   -1.7730   -2.7990 hc        1 MOL      0.043707
     72 H32        -5.3780   -2.8520   -3.8250 hn        1 MOL      0.299162
     73 H33        -3.7640   -3.2720   -3.1380 hn        1 MOL      0.299162
     74 N8         -6.0900   -1.7900    1.4170 n         1 MOL     -0.304165
     75 C23        -5.9850   -2.8090    2.4730 c3        1 MOL     -0.206738
     76 C24        -4.6210   -3.4590    2.6000 c         1 MOL      0.657296
     77 O12        -4.5830   -4.3110    3.4450 o         1 MOL     -0.580325
     78 H34        -5.8240   -0.8400    1.6070 hn        1 MOL      0.285175
     79 H35        -6.7130   -3.6190    2.4200 h1        1 MOL      0.122765
     80 H36        -6.0940   -2.3270    3.4560 h1        1 MOL      0.122765
     81 N9         -3.5790   -3.1650    1.7890 n         1 MOL     -0.468907
     82 C25        -2.3460   -3.8400    1.8180 c3        1 MOL      0.047214
     83 C26        -1.1710   -3.0360    1.3540 c         1 MOL      0.748827
     84 O13        -1.3250   -2.3330    0.3670 o         1 MOL     -0.702420
     85 C27        -2.4390   -5.2230    1.0890 c3        1 MOL     -0.223706
     86 C28        -2.2760   -5.2350   -0.4600 ca        1 MOL      0.045033
     87 C29        -0.9700   -5.2360   -1.0010 ca        1 MOL     -0.134991
     88 C30        -3.4380   -5.2900   -1.2610 ca        1 MOL     -0.134991
     89 C31        -0.8710   -5.5120   -2.3430 ca        1 MOL     -0.264621
     90 C32        -3.2940   -5.3160   -2.6330 ca        1 MOL     -0.264621
     91 C33        -2.0110   -5.3360   -3.1860 ca        1 MOL      0.336308
     92 O14        -1.7320   -5.4820   -4.5090 oh        1 MOL     -0.521814
     93 H37        -3.6210   -2.4020    1.1360 hn        1 MOL      0.318695
     94 H38        -2.1560   -4.0680    2.8590 h1        1 MOL      0.055674
     95 H39        -3.3710   -5.7500    1.3220 hc        1 MOL      0.100503
     96 H40        -1.6000   -5.8080    1.4440 hc        1 MOL      0.100503
     97 H41        -0.1000   -5.2530   -0.3590 ha        1 MOL      0.161500
     98 H42        -4.4180   -5.3410   -0.7980 ha        1 MOL      0.161500
     99 H43         0.0830   -5.7100   -2.8170 ha        1 MOL      0.143341
    100 H44        -4.2020   -5.2870   -3.2250 ha        1 MOL      0.143341
    101 H45        -0.8030   -5.4470   -4.7320 ho        1 MOL      0.365550
    102 N10         0.0040   -3.1910    1.9730 n         1 MOL     -0.542201
    103 C34         1.2310   -2.6240    1.5400 c3        1 MOL     -0.057456
    104 C35         2.2400   -3.6080    0.9660 c         1 MOL      0.394197
    105 O15         2.2810   -4.8350    1.2960 o         1 MOL     -0.542428
    106 C36         1.7360   -1.6480    2.6260 c3        1 MOL      0.395463
    107 C37         1.9480   -2.4090    3.8800 c3        1 MOL     -0.023265
    108 C38         0.8050   -0.3520    2.7290 c3        1 MOL     -0.675335
    109 C39         2.6790   -1.6130    4.9310 c3        1 MOL     -0.080003
    110 H46         0.1430   -3.9270    2.6440 hn        1 MOL      0.285957
    111 H47         0.9800   -2.0090    0.6750 h1        1 MOL      0.078277
    112 H48         2.7210   -1.2710    2.3470 hc        1 MOL     -0.147149
    113 H49         2.6510   -3.2160    3.6470 hc        1 MOL      0.017805
    114 H50         0.9730   -2.6710    4.2970 hc        1 MOL      0.017805
    115 H51        -0.2410   -0.5990    2.5830 hc        1 MOL      0.196973
    116 H52         0.9920    0.1150    3.6970 hc        1 MOL      0.196973
    117 H53         1.1010    0.4830    2.0780 hc        1 MOL      0.196973
    118 H54         2.8500   -2.2840    5.7670 hc        1 MOL      0.020585
    119 H55         3.6270   -1.2720    4.4910 hc        1 MOL      0.020585
    120 H56         2.0840   -0.7310    5.1700 hc        1 MOL      0.020585
    121 N11         3.0550   -3.1280    0.0990 n         1 MOL     -0.206353
    122 C40         4.3490   -3.6420   -0.3870 c3        1 MOL      0.108287
    123 C41         5.5980   -2.8420    0.0240 c         1 MOL      0.412157
    124 O16         5.5420   -1.8690    0.7550 o         1 MOL     -0.424937
    125 C42         4.3450   -3.7090   -1.9190 c3        1 MOL      0.048904
    126 O17         4.2120   -2.4160   -2.4720 oh        1 MOL     -0.586132
    127 H57         2.7260   -2.2480   -0.2820 hn        1 MOL      0.234910
    128 H58         4.4510   -4.6790   -0.0690 h1        1 MOL      0.060708
    129 H59         3.4910   -4.3270   -2.1880 h1        1 MOL      0.037435
    130 H60         5.2500   -4.2010   -2.2480 h1        1 MOL      0.037435
    131 H61         4.6630   -2.4190   -3.3190 ho        1 MOL      0.418277
    132 N12         6.8120   -3.2680   -0.3130 n         1 MOL     -0.408059
    133 C43         8.0530   -2.6340   -0.0200 c3        1 MOL      0.176014
    134 C44         8.2680   -1.2230   -0.5680 c         1 MOL      0.494188
    135 O18         8.8480   -0.4340    0.1500 o         1 MOL     -0.484389
    136 C45         9.1940   -3.4590   -0.5130 c3        1 MOL     -0.472210
    137 H62         6.8240   -4.1680   -0.7810 hn        1 MOL      0.266763
    138 H63         8.2290   -2.5650    1.0610 h1        1 MOL      0.099636
    139 H64         9.0200   -3.9540   -1.4710 hc        1 MOL      0.135402
    140 H65        10.0280   -2.7910   -0.7400 hc        1 MOL      0.135402
    141 H66         9.4350   -4.1320    0.3190 hc        1 MOL      0.135402
    142 N13         7.5790   -0.8760   -1.7440 n         1 MOL     -0.423106
    143 C46         7.6380    0.4770   -2.2680 c3        1 MOL      0.070707
    144 C47         6.7390    1.4460   -1.4680 c         1 MOL      0.359052
    145 O19         7.2400    2.5230   -1.1550 o         1 MOL     -0.497141
    146 C48         7.0980    0.5210   -3.7440 c3        1 MOL     -0.259750
    147 H67         7.0200   -1.5890   -2.1940 hn        1 MOL      0.236254
    148 H68         8.6100    0.9560   -2.1480 h1        1 MOL      0.115065
    149 H69         7.6340    0.0210   -4.5490 hc        1 MOL      0.077440
    150 H70         6.0780    0.1310   -3.7140 hc        1 MOL      0.077440
    151 H71         7.1580    1.5710   -4.0440 hc        1 MOL      0.077440
    152 N14         5.5820    1.0120   -0.9060 n         1 MOL     -0.211394
    153 C49         4.7160    1.7480    0.0400 c3        1 MOL      0.010099
    154 C50         5.2110    1.7350    1.4760 c         1 MOL      0.382650
    155 O20         5.0190    2.7450    2.2210 o         1 MOL     -0.520053
    156 C51         3.3120    1.1330    0.1520 c3        1 MOL     -0.306356
    157 C52         2.4850    1.6330   -1.0320 c3        1 MOL      0.130627
    158 C53         1.0390    1.0710   -0.8340 c         1 MOL      0.556657
    159 O21         0.8110   -0.0830   -1.3120 o         1 MOL     -0.724241
    160 O22         0.1300    1.7770   -0.3210 o         1 MOL     -0.724241
    161 H72         5.2950    0.0800   -1.1800 hn        1 MOL      0.219040
    162 H73         4.6980    2.7980   -0.2710 h1        1 MOL      0.051063
    163 H74         2.8370    1.5820    1.0300 hc        1 MOL      0.182586
    164 H75         3.3200    0.0340    0.1720 hc        1 MOL      0.182586
    165 H76         3.0150    1.4190   -1.9650 hc        1 MOL     -0.057240
    166 H77         2.4590    2.7140   -1.1000 hc        1 MOL     -0.057240
    167 N15         5.9340    0.6680    1.9440 n         1 MOL     -0.063268
    168 C54         6.5180    0.6830    3.3040 c3        1 MOL     -0.169140
    169 H78         7.0460    1.6240    3.4620 h1        1 MOL      0.078596
    170 H79         5.7230    0.5850    4.0430 h1        1 MOL      0.078596
    171 H80         7.2170   -0.1460    3.4090 h1        1 MOL      0.078596
    172 H81         6.1710   -0.1340    1.3840 hn        1 MOL      0.117126
    173 Ca1        -1.7320   -0.1730   -1.0280 Ca        1 MOL      1.830708
    174 O23        -1.3120   -1.3780   -3.3310 oh        1 MOL     -0.938666
    175 H82        -1.7350   -1.4560   -4.1820 ho        1 MOL      0.436106
    176 H83        -0.4410   -1.7580   -3.4540 ho        1 MOL      0.436106
@<TRIPOS>BOND
     1    1    2 1   
     2    1    4 1   
     3    1    5 1   
     4    1    6 1   
     5    2    3 2   
     6    2    7 1   
     7    7    8 1   
     8    7   15 1   
     9    8    9 1   
    10    8   11 1   
    11    8   16 1   
    12    9   10 2   
    13    9   19 1   
    14   11   12 1   
    15   11   17 1   
    16   11   18 1   
    17   12   13 1   
    18   12   14 1   
    19   19   20 1   
    20   19   28 1   
    21   20   21 1   
    22   20   23 1   
    23   20   29 1   
    24   21   22 2   
    25   21   41 1   
    26   23   24 1   
    27   23   30 1   
    28   23   31 1   
    29   24   25 1   
    30   24   32 1   
    31   24   33 1   
    32   25   26 1   
    33   25   34 1   
    34   25   35 1   
    35   26   27 1   
    36   26   36 1   
    37   26   37 1   
    38   27   38 1   
    39   27   39 1   
    40   27   40 1   
    41   41   42 1   
    42   41   49 1   
    43   42   43 1   
    44   42   45 1   
    45   42   50 1   
    46   43   44 2   
    47   43   53 1   
    48   45   46 1   
    49   45   51 1   
    50   45   52 1   
    51   46   47 1   
    52   46   48 1   
    53   53   54 1   
    54   53   57 1   
    55   54   55 1   
    56   54   58 1   
    57   54   59 1   
    58   55   56 2   
    59   55   60 1   
    60   60   61 1   
    61   60   68 1   
    62   61   62 1   
    63   61   64 1   
    64   61   69 1   
    65   62   63 2   
    66   62   74 1   
    67   64   65 1   
    68   64   70 1   
    69   64   71 1   
    70   65   66 1   
    71   65   67 2   
    72   66   72 1   
    73   66   73 1   
    74   74   75 1   
    75   74   78 1   
    76   75   76 1   
    77   75   79 1   
    78   75   80 1   
    79   76   77 2   
    80   76   81 1   
    81   81   82 1   
    82   81   93 1   
    83   82   83 1   
    84   82   85 1   
    85   82   94 1   
    86   83   84 2   
    87   83  102 1   
    88   85   86 1   
    89   85   95 1   
    90   85   96 1   
    91   86   87 ar  
    92   86   88 ar  
    93   87   89 ar  
    94   87   97 1   
    95   88   90 ar  
    96   88   98 1   
    97   89   91 ar  
    98   89   99 1   
    99   90   91 ar  
   100   90  100 1   
   101   91   92 1   
   102   92  101 1   
   103  102  103 1   
   104  102  110 1   
   105  103  104 1   
   106  103  106 1   
   107  103  111 1   
   108  104  105 2   
   109  104  121 1   
   110  106  107 1   
   111  106  108 1   
   112  106  112 1   
   113  107  109 1   
   114  107  113 1   
   115  107  114 1   
   116  108  115 1   
   117  108  116 1   
   118  108  117 1   
   119  109  118 1   
   120  109  119 1   
   121  109  120 1   
   122  121  122 1   
   123  121  127 1   
   124  122  123 1   
   125  122  125 1   
   126  122  128 1   
   127  123  124 2   
   128  123  132 1   
   129  125  126 1   
   130  125  129 1   
   131  125  130 1   
   132  126  131 1   
   133  132  133 1   
   134  132  137 1   
   135  133  134 1   
   136  133  136 1   
   137  133  138 1   
   138  134  135 2   
   139  134  142 1   
   140  136  139 1   
   141  136  140 1   
   142  136  141 1   
   143  142  143 1   
   144  142  147 1   
   145  143  144 1   
   146  143  146 1   
   147  143  148 1   
   148  144  145 2   
   149  144  152 1   
   150  146  149 1   
   151  146  150 1   
   152  146  151 1   
   153  152  153 1   
   154  152  161 1   
   155  153  154 1   
   156  153  156 1   
   157  153  162 1   
   158  154  155 2   
   159  154  167 1   
   160  156  157 1   
   161  156  163 1   
   162  156  164 1   
   163  157  158 1   
   164  157  165 1   
   165  157  166 1   
   166  158  159 1   
   167  158  160 1   
   168  167  168 1   
   169  167  172 1   
   170  168  169 1   
   171  168  170 1   
   172  168  171 1   
   173  174  175 1   
   174  174  176 1   
@<TRIPOS>SUBSTRUCTURE
     1 MOL         1 TEMP              0 ****  ****    0 ROOT
