@<TRIPOS>MOLECULE
MOL
  189   185     1     0     0
SMALL
resp


@<TRIPOS>ATOM
      1 C1          0.0210    2.9990    5.2950 c3        1 MOL     -0.327446
      2 C2         -0.4520    2.4580    3.9780 c         1 MOL      0.717517
      3 O1          0.4550    2.3760    3.1300 o         1 MOL     -0.645636
      4 H1          1.1080    3.0870    5.2830 hc        1 MOL      0.080728
      5 H2         -0.4210    3.9810    5.4650 hc        1 MOL      0.080728
      6 H3         -0.2790    2.3210    6.0950 hc        1 MOL      0.080728
      7 N1         -1.6790    2.0190    3.6740 n         1 MOL     -0.616005
      8 C3         -2.2670    1.6010    2.3790 c3        1 MOL      0.036784
      9 C4         -2.7960    2.9200    1.7020 c         1 MOL      0.504368
     10 O2         -3.8440    3.4250    2.0660 o         1 MOL     -0.535730
     11 C5         -3.2870    0.5670    2.5360 c3        1 MOL     -0.181825
     12 C6         -3.8780    0.1540    1.1830 c         1 MOL      0.585442
     13 O3         -3.3920    0.6540    0.1370 o         1 MOL     -0.639748
     14 O4         -4.9230   -0.5300    1.1690 o         1 MOL     -0.639748
     15 H4         -2.3450    1.9910    4.4260 hn        1 MOL      0.326752
     16 H5         -1.4990    1.1470    1.7560 h1        1 MOL      0.127598
     17 H6         -4.0110    0.9300    3.2670 hc        1 MOL      0.066319
     18 H7         -2.8620   -0.2980    3.0500 hc        1 MOL      0.066319
     19 N2         -1.9530    3.5490    0.8740 n         1 MOL     -0.363957
     20 C7         -2.1430    4.8500    0.1920 c3        1 MOL      0.064487
     21 C8         -2.8910    4.5940   -1.1730 c         1 MOL      0.504415
     22 O5         -2.8320    5.4010   -2.1440 o         1 MOL     -0.540674
     23 C9         -0.8900    5.7020    0.1100 c3        1 MOL     -0.207581
     24 C10        -0.3640    6.3210    1.4380 c3        1 MOL      0.141155
     25 C11        -0.6680    7.8390    1.3800 c3        1 MOL     -0.198551
     26 C12        -0.1190    8.5270    2.6820 c3        1 MOL     -0.020482
     27 N3         -1.1120    8.4680    3.8100 n4        1 MOL     -0.437836
     28 H8         -1.0850    3.0960    0.5950 hn        1 MOL      0.371962
     29 H9         -2.8100    5.4870    0.7750 h1        1 MOL      0.042684
     30 H10        -1.1280    6.5370   -0.5530 hc        1 MOL      0.071345
     31 H11        -0.0570    5.0860   -0.2210 hc        1 MOL      0.071345
     32 H12         0.6970    6.1020    1.5450 hc        1 MOL      0.008649
     33 H13        -0.8180    5.8850    2.3280 hc        1 MOL      0.008649
     34 H14        -1.7270    8.0480    1.2630 hc        1 MOL      0.102785
     35 H15        -0.1970    8.3600    0.5500 hc        1 MOL      0.102785
     36 H16         0.0290    9.5880    2.5040 hx        1 MOL      0.103191
     37 H17         0.8410    8.1120    2.9980 hx        1 MOL      0.103191
     38 H18        -0.7400    8.7960    4.6860 hn        1 MOL      0.352954
     39 H19        -1.8960    9.0400    3.5160 hn        1 MOL      0.352954
     40 H20        -1.3240    7.4970    3.9600 hn        1 MOL      0.352954
     41 N4         -3.7830    3.5680   -1.1870 n         1 MOL     -0.168900
     42 C13        -4.7460    3.2780   -2.2770 c3        1 MOL     -0.173388
     43 C14        -6.0480    2.7210   -1.7560 c         1 MOL      0.521621
     44 O6         -7.0750    2.8800   -2.3370 o         1 MOL     -0.539003
     45 C15        -4.1430    2.2010   -3.1660 c3        1 MOL      0.128768
     46 C16        -2.6480    2.2250   -3.4730 c         1 MOL      0.604200
     47 O7         -1.8650    1.5770   -2.6680 o         1 MOL     -0.625365
     48 O8         -2.1880    2.7830   -4.4800 o         1 MOL     -0.625365
     49 H21        -3.6150    2.9610   -0.3950 hn        1 MOL     -0.132392
     50 H22        -4.8480    4.2040   -2.8320 h1        1 MOL      0.122918
     51 H23        -4.6870    2.0790   -4.1100 hc        1 MOL     -0.024558
     52 H24        -4.4020    1.2710   -2.6600 hc        1 MOL     -0.024558
     53 N5         -6.0890    2.0530   -0.6290 n         1 MOL     -0.238957
     54 C17        -7.2490    1.4250   -0.0860 c3        1 MOL     -0.402307
     55 C18        -7.5560    0.0430   -0.6760 c         1 MOL      0.609014
     56 O9         -8.6500   -0.5070   -0.4770 o         1 MOL     -0.597816
     57 H25        -5.2440    1.7830   -0.1450 hn        1 MOL      0.388590
     58 H26        -8.1760    1.9840   -0.2270 h1        1 MOL      0.160295
     59 H27        -7.0340    1.2230    0.9600 h1        1 MOL      0.160295
     60 N6         -6.6120   -0.5680   -1.3670 n         1 MOL     -0.336221
     61 C19        -6.7320   -1.8930   -2.0110 c3        1 MOL      0.037486
     62 C20        -6.7060   -3.0400   -0.9740 c         1 MOL      0.423531
     63 O10        -7.0760   -4.1530   -1.4460 o         1 MOL     -0.567440
     64 C21        -5.5640   -2.0770   -3.0110 c3        1 MOL     -0.231556
     65 C22        -4.1990   -1.7070   -2.5420 c         1 MOL      0.797698
     66 O11        -3.4360   -1.0240   -3.2340 o         1 MOL     -0.760476
     67 O12        -3.7910   -2.1000   -1.4180 o         1 MOL     -0.760476
     68 H28        -5.6990   -0.1510   -1.3460 hn        1 MOL      0.238636
     69 H29        -7.6760   -2.0620   -2.5160 h1        1 MOL      0.110077
     70 H30        -5.8070   -1.4250   -3.8560 hc        1 MOL      0.069454
     71 H31        -5.6320   -3.1150   -3.3450 hc        1 MOL      0.069454
     72 N7         -6.3760   -2.7890    0.2910 n         1 MOL     -0.220671
     73 C23        -6.4170   -3.7670    1.4180 c3        1 MOL     -0.117703
     74 C24        -5.0710   -4.0700    1.9350 c         1 MOL      0.547586
     75 O13        -4.9300   -4.8070    2.9010 o         1 MOL     -0.564480
     76 H32        -6.0130   -1.8530    0.3660 hn        1 MOL      0.257966
     77 H33        -6.9180   -4.6920    1.1250 h1        1 MOL      0.102143
     78 H34        -6.9930   -3.3040    2.2160 h1        1 MOL      0.102143
     79 N8         -4.0440   -3.6690    1.1380 n         1 MOL     -0.233011
     80 C25        -2.7220   -4.3140    1.1260 c3        1 MOL     -0.244739
     81 C26        -1.5200   -3.3710    1.2810 c         1 MOL      0.668594
     82 O14        -1.4880   -2.3970    0.5660 o         1 MOL     -0.573639
     83 C27        -2.5500   -5.2110   -0.0850 c3        1 MOL      0.505502
     84 C28        -3.1610   -6.5450    0.1230 c3        1 MOL     -0.473640
     85 O15        -3.3890   -4.6080   -1.0730 oh        1 MOL     -0.651932
     86 H35        -4.2260   -2.9520    0.4550 hn        1 MOL      0.122695
     87 H36        -2.6620   -5.0290    1.9490 h1        1 MOL      0.085317
     88 H37        -1.4820   -5.2760   -0.3000 h1        1 MOL     -0.045113
     89 H38        -3.6410   -3.7430   -0.7440 ho        1 MOL      0.468037
     90 H39        -2.9300   -7.1930   -0.7270 hc        1 MOL      0.126454
     91 H40        -2.8130   -7.0830    1.0130 hc        1 MOL      0.126454
     92 H41        -4.2410   -6.4630    0.1280 hc        1 MOL      0.126454
     93 N9         -0.4430   -3.7330    2.0480 n         1 MOL     -0.571982
     94 C29         0.8090   -2.9850    2.1290 c3        1 MOL      0.021568
     95 C30         1.8340   -3.6290    1.1560 c         1 MOL      0.531823
     96 O16         2.2450   -4.7620    1.3880 o         1 MOL     -0.564399
     97 C31         1.3910   -2.8100    3.5170 c3        1 MOL      0.081825
     98 C32         0.4970   -1.8220    4.2630 c3        1 MOL     -0.042245
     99 C33         2.8460   -2.3380    3.6530 c3        1 MOL     -0.196825
    100 C34         0.8220   -1.4800    5.7440 c3        1 MOL     -0.281879
    101 H42        -0.5820   -4.5060    2.6830 hn        1 MOL      0.319685
    102 H43         0.6530   -1.9740    1.7660 h1        1 MOL      0.028014
    103 H44         1.2640   -3.7650    4.0240 hc        1 MOL      0.014784
    104 H45        -0.5490   -2.1170    4.1880 hc        1 MOL      0.065822
    105 H46         0.5830   -0.8650    3.7460 hc        1 MOL      0.065822
    106 H47         3.2000   -2.4710    4.6760 hc        1 MOL      0.047433
    107 H48         3.5380   -2.9520    3.0820 hc        1 MOL      0.047433
    108 H49         2.7850   -1.2620    3.4800 hc        1 MOL      0.047433
    109 H50        -0.0030   -0.9020    6.1490 hc        1 MOL      0.072841
    110 H51         1.0570   -2.3810    6.3090 hc        1 MOL      0.072841
    111 H52         1.7710   -0.9290    5.7970 hc        1 MOL      0.072841
    112 N10         2.2450   -2.9410    0.0920 n         1 MOL     -0.175460
    113 C35         3.3250   -3.3450   -0.8250 c3        1 MOL     -0.147128
    114 C36         4.7210   -2.9780   -0.2830 c         1 MOL      0.338566
    115 O17         4.8190   -2.2030    0.7480 o         1 MOL     -0.339142
    116 C37         3.0710   -2.6640   -2.2050 c3        1 MOL      0.355754
    117 C38         1.8010   -3.0850   -2.9040 c3        1 MOL     -0.202212
    118 O18         3.0600   -1.2570   -2.1060 oh        1 MOL     -0.692259
    119 H53         1.7920   -2.0500   -0.0880 hn        1 MOL      0.184475
    120 H54         3.3120   -4.4010   -1.1180 h1        1 MOL      0.091321
    121 H55         3.8450   -2.9270   -2.9280 h1        1 MOL     -0.003607
    122 H56         2.4040   -0.9690   -1.4590 ho        1 MOL      0.484381
    123 H57         0.9850   -2.9460   -2.1940 hc        1 MOL      0.051738
    124 H58         1.6790   -2.5330   -3.8360 hc        1 MOL      0.051738
    125 H59         1.9220   -4.1250   -3.1970 hc        1 MOL      0.051738
    126 N11         5.7640   -3.3230   -1.0090 n         1 MOL     -0.271310
    127 C39         7.1840   -2.9950   -0.7570 c3        1 MOL     -0.148963
    128 C40         7.4990   -1.5230   -0.4610 c         1 MOL      0.420471
    129 O19         8.1940   -1.2340    0.4920 o         1 MOL     -0.461372
    130 C41         8.0910   -3.5310   -1.7980 c3        1 MOL      0.405854
    131 C42         9.5450   -3.1650   -1.6320 c3        1 MOL     -0.317009
    132 O20         7.9720   -4.9420   -1.9410 oh        1 MOL     -0.586185
    133 H60         5.5090   -3.9170   -1.7960 hn        1 MOL      0.228835
    134 H61         7.5320   -3.4630    0.1730 h1        1 MOL      0.118456
    135 H62         7.6920   -3.0620   -2.6980 h1        1 MOL     -0.060277
    136 H63         7.0430   -5.1750   -1.8710 ho        1 MOL      0.370525
    137 H64         9.6450   -2.0910   -1.8010 hc        1 MOL      0.103273
    138 H65         9.9110   -3.4240   -0.6390 hc        1 MOL      0.103273
    139 H66        10.1500   -3.7580   -2.3160 hc        1 MOL      0.103273
    140 N12         7.0020   -0.5550   -1.2880 n         1 MOL     -0.233501
    141 C43         7.1620    0.9060   -1.1280 c3        1 MOL     -0.153664
    142 C44         6.3750    1.3100    0.1640 c         1 MOL      0.282423
    143 O21         6.9100    2.0320    1.0060 o         1 MOL     -0.497031
    144 C45         6.7280    1.6090   -2.4220 c3        1 MOL     -0.288224
    145 C46         6.8280    3.1920   -2.3000 c3        1 MOL     -0.005840
    146 C47         6.4920    3.6900   -3.7210 c3        1 MOL     -0.069774
    147 C48         6.6740    5.2240   -3.8020 c3        1 MOL      0.067249
    148 N13         6.5040    5.8250   -5.1000 n4        1 MOL     -0.206015
    149 H67         6.6180   -0.8580   -2.1730 hn        1 MOL      0.229686
    150 H68         8.2160    1.0770   -0.9390 h1        1 MOL      0.158169
    151 H69         5.7040    1.2750   -2.6290 hc        1 MOL      0.121081
    152 H70         7.2380    1.2740   -3.3310 hc        1 MOL      0.121081
    153 H71         7.8030    3.6200   -2.0570 hc        1 MOL      0.073449
    154 H72         6.2000    3.6190   -1.5140 hc        1 MOL      0.073449
    155 H73         5.4550    3.4770   -3.9660 hc        1 MOL      0.045156
    156 H74         7.1270    3.2190   -4.4780 hc        1 MOL      0.045156
    157 H75         7.6830    5.4060   -3.4340 hx        1 MOL      0.059409
    158 H76         6.0190    5.7030   -3.0670 hx        1 MOL      0.059409
    159 H77         6.7100    6.7910   -5.3090 hn        1 MOL      0.251597
    160 H78         6.8780    5.2130   -5.8230 hn        1 MOL      0.251597
    161 H79         5.5280    5.8230   -5.3400 hn        1 MOL      0.251597
    162 N14         5.1930    0.8650    0.3900 n         1 MOL      0.067693
    163 C49         4.3620    1.1990    1.5060 c3        1 MOL     -0.096787
    164 C50         4.7960    0.6870    2.8880 c         1 MOL      0.363561
    165 O22         4.7460    1.5300    3.8170 o         1 MOL     -0.535080
    166 C51         2.8920    0.7580    1.2810 c3        1 MOL      0.011345
    167 C52         2.2010    1.4570    0.1370 c3        1 MOL     -0.275224
    168 C53         0.9030    0.7520   -0.2520 c         1 MOL      0.800840
    169 O23         0.9780   -0.4610   -0.5580 o         1 MOL     -0.802886
    170 O24        -0.2150    1.2610   -0.2630 o         1 MOL     -0.802886
    171 H80         4.8830    0.0720   -0.1640 hn        1 MOL      0.035315
    172 H81         4.3750    2.2830    1.5270 h1        1 MOL      0.090009
    173 H82         2.2780    0.8410    2.1760 hc        1 MOL      0.119143
    174 H83         2.9900   -0.3000    1.0430 hc        1 MOL      0.119143
    175 H84         2.9370    1.5010   -0.6720 hc        1 MOL      0.054866
    176 H85         1.9390    2.4720    0.4390 hc        1 MOL      0.054866
    177 N15         5.5310   -0.4680    2.9380 n         1 MOL      0.032278
    178 C54         6.3150   -0.9260    4.1350 c3        1 MOL     -0.238406
    179 H86         7.2890   -0.4350    4.1410 h1        1 MOL      0.091155
    180 H87         5.7740   -0.6670    5.0460 h1        1 MOL      0.091155
    181 H88         6.4540   -2.0060    4.0880 h1        1 MOL      0.091155
    182 H89         5.5100   -1.0710    2.1250 hn        1 MOL      0.078922
    183 Ca1        -1.6020   -0.6100   -1.4600 Ca        1 MOL      1.804742
    184 O25         0.1290   -0.5070   -3.5530 oh        1 MOL     -0.847252
    185 H90        -0.2370    0.1300   -4.1550 ho        1 MOL      0.397575
    186 H91         0.7950   -0.9730   -4.0590 ho        1 MOL      0.397575
    187 O26        -1.6190   -3.2630   -2.8160 oh        1 MOL     -0.847252
    188 H92        -2.3730   -3.8020   -2.5890 ho        1 MOL      0.397575
    189 H93        -1.4220   -3.5030   -3.7220 ho        1 MOL      0.397575
@<TRIPOS>BOND
     1    1    2 1   
     2    1    4 1   
     3    1    5 1   
     4    1    6 1   
     5    2    3 2   
     6    2    7 1   
     7    7    8 1   
     8    7   15 1   
     9    8    9 1   
    10    8   11 1   
    11    8   16 1   
    12    9   10 2   
    13    9   19 1   
    14   11   12 1   
    15   11   17 1   
    16   11   18 1   
    17   12   13 1   
    18   12   14 1   
    19   19   20 1   
    20   19   28 1   
    21   20   21 1   
    22   20   23 1   
    23   20   29 1   
    24   21   22 2   
    25   21   41 1   
    26   23   24 1   
    27   23   30 1   
    28   23   31 1   
    29   24   25 1   
    30   24   32 1   
    31   24   33 1   
    32   25   26 1   
    33   25   34 1   
    34   25   35 1   
    35   26   27 1   
    36   26   36 1   
    37   26   37 1   
    38   27   38 1   
    39   27   39 1   
    40   27   40 1   
    41   41   42 1   
    42   41   49 1   
    43   42   43 1   
    44   42   45 1   
    45   42   50 1   
    46   43   44 2   
    47   43   53 1   
    48   45   46 1   
    49   45   51 1   
    50   45   52 1   
    51   46   47 1   
    52   46   48 1   
    53   53   54 1   
    54   53   57 1   
    55   54   55 1   
    56   54   58 1   
    57   54   59 1   
    58   55   56 2   
    59   55   60 1   
    60   60   61 1   
    61   60   68 1   
    62   61   62 1   
    63   61   64 1   
    64   61   69 1   
    65   62   63 2   
    66   62   72 1   
    67   64   65 1   
    68   64   70 1   
    69   64   71 1   
    70   65   66 1   
    71   65   67 1   
    72   72   73 1   
    73   72   76 1   
    74   73   74 1   
    75   73   77 1   
    76   73   78 1   
    77   74   75 2   
    78   74   79 1   
    79   79   80 1   
    80   79   86 1   
    81   80   81 1   
    82   80   83 1   
    83   80   87 1   
    84   81   82 2   
    85   81   93 1   
    86   83   84 1   
    87   83   85 1   
    88   83   88 1   
    89   84   90 1   
    90   84   91 1   
    91   84   92 1   
    92   85   89 1   
    93   93   94 1   
    94   93  101 1   
    95   94   95 1   
    96   94   97 1   
    97   94  102 1   
    98   95   96 2   
    99   95  112 1   
   100   97   98 1   
   101   97   99 1   
   102   97  103 1   
   103   98  100 1   
   104   98  104 1   
   105   98  105 1   
   106   99  106 1   
   107   99  107 1   
   108   99  108 1   
   109  100  109 1   
   110  100  110 1   
   111  100  111 1   
   112  112  113 1   
   113  112  119 1   
   114  113  114 1   
   115  113  116 1   
   116  113  120 1   
   117  114  115 2   
   118  114  126 1   
   119  116  117 1   
   120  116  118 1   
   121  116  121 1   
   122  117  123 1   
   123  117  124 1   
   124  117  125 1   
   125  118  122 1   
   126  126  127 1   
   127  126  133 1   
   128  127  128 1   
   129  127  130 1   
   130  127  134 1   
   131  128  129 2   
   132  128  140 1   
   133  130  131 1   
   134  130  132 1   
   135  130  135 1   
   136  131  137 1   
   137  131  138 1   
   138  131  139 1   
   139  132  136 1   
   140  140  141 1   
   141  140  149 1   
   142  141  142 1   
   143  141  144 1   
   144  141  150 1   
   145  142  143 2   
   146  142  162 1   
   147  144  145 1   
   148  144  151 1   
   149  144  152 1   
   150  145  146 1   
   151  145  153 1   
   152  145  154 1   
   153  146  147 1   
   154  146  155 1   
   155  146  156 1   
   156  147  148 1   
   157  147  157 1   
   158  147  158 1   
   159  148  159 1   
   160  148  160 1   
   161  148  161 1   
   162  162  163 1   
   163  162  171 1   
   164  163  164 1   
   165  163  166 1   
   166  163  172 1   
   167  164  165 2   
   168  164  177 1   
   169  166  167 1   
   170  166  173 1   
   171  166  174 1   
   172  167  168 1   
   173  167  175 1   
   174  167  176 1   
   175  168  169 1   
   176  168  170 1   
   177  177  178 1   
   178  177  182 1   
   179  178  179 1   
   180  178  180 1   
   181  178  181 1   
   182  184  185 1   
   183  184  186 1   
   184  187  188 1   
   185  187  189 1   
@<TRIPOS>SUBSTRUCTURE
     1 MOL         1 TEMP              0 ****  ****    0 ROOT
