@<TRIPOS>MOLECULE
MOL
  179   176     1     0     0
SMALL
resp


@<TRIPOS>ATOM
      1 C1          0.5110    4.5400    6.2910 c3        1 MOL     -0.371615
      2 C2          0.6410    3.8100    4.9050 c         1 MOL      0.729634
      3 O1          1.7270    3.6540    4.3990 o         1 MOL     -0.577517
      4 H1          1.3890    4.3240    6.8990 hc        1 MOL      0.094702
      5 H2          0.4380    5.6160    6.1290 hc        1 MOL      0.094702
      6 H3         -0.3820    4.1880    6.8050 hc        1 MOL      0.094702
      7 N1         -0.5130    3.4260    4.3310 n         1 MOL     -0.646681
      8 C3         -0.5740    2.8270    2.9560 c3        1 MOL      0.054810
      9 C4         -0.5840    3.9130    1.8560 c         1 MOL      0.641545
     10 O2         -1.4260    4.8050    1.8800 o         1 MOL     -0.556518
     11 C5         -1.6820    1.7690    2.9180 c3        1 MOL     -0.051649
     12 C6         -1.8630    1.1520    1.5600 c         1 MOL      0.685051
     13 O3         -0.8820    1.0720    0.7890 o         1 MOL     -0.710928
     14 O4         -3.0280    0.8260    1.2270 o         1 MOL     -0.710928
     15 H4         -1.3940    3.6540    4.7540 hn        1 MOL      0.341587
     16 H5          0.3150    2.2160    2.8210 h1        1 MOL      0.085634
     17 H6         -2.6300    2.2040    3.2570 hc        1 MOL      0.028056
     18 H7         -1.5100    0.9540    3.6240 hc        1 MOL      0.028056
     19 N2          0.3890    3.8510    0.9570 n         1 MOL     -0.363465
     20 C7          0.6530    4.6750   -0.2050 c3        1 MOL     -0.023847
     21 C8         -0.5970    5.1740   -0.9630 c         1 MOL      0.457618
     22 O5         -0.5580    6.2490   -1.5180 o         1 MOL     -0.551058
     23 C9          1.6330    3.9240   -1.2130 c3        1 MOL      0.001237
     24 C10         2.2660    4.9100   -2.2490 c3        1 MOL     -0.169529
     25 C11         3.4540    4.4110   -3.1620 c3        1 MOL      0.002769
     26 C12         4.0940    5.6560   -3.8220 c3        1 MOL      0.051855
     27 N3          5.2220    5.2690   -4.6550 n4        1 MOL     -0.462260
     28 H8          1.0690    3.1050    1.0600 hn        1 MOL      0.195184
     29 H9          1.2020    5.5840    0.0650 h1        1 MOL      0.099383
     30 H10         1.2140    3.0520   -1.7120 hc        1 MOL      0.066686
     31 H11         2.4990    3.5910   -0.6440 hc        1 MOL      0.066686
     32 H12         2.4980    5.8540   -1.7430 hc        1 MOL      0.054719
     33 H13         1.4660    5.1940   -2.9340 hc        1 MOL      0.054719
     34 H14         3.0470    3.7270   -3.9010 hc        1 MOL      0.052250
     35 H15         4.2140    3.8780   -2.5800 hc        1 MOL      0.052250
     36 H16         4.5160    6.2830   -3.0390 hx        1 MOL      0.089247
     37 H17         3.4320    6.2310   -4.4710 hx        1 MOL      0.089247
     38 H18         5.6880    6.0930   -5.0220 hn        1 MOL      0.354475
     39 H19         5.8750    4.7710   -4.0780 hn        1 MOL      0.354475
     40 H20         4.8640    4.7270   -5.4330 hn        1 MOL      0.354475
     41 N4         -1.7180    4.4030   -0.9360 n         1 MOL     -0.152322
     42 C13        -3.0540    4.8180   -1.4650 c3        1 MOL      0.128995
     43 C14        -4.1910    4.7260   -0.4170 c         1 MOL      0.369229
     44 O6         -5.1580    5.4580   -0.4880 o         1 MOL     -0.518245
     45 C15        -3.3460    4.1640   -2.7980 c3        1 MOL     -0.350479
     46 C16        -2.8960    2.7130   -2.8650 c         1 MOL      0.697016
     47 O7         -2.4430    2.2940   -3.9580 o         1 MOL     -0.670543
     48 O8         -3.1040    1.9210   -1.9280 o         1 MOL     -0.670543
     49 H21        -1.5430    3.4970   -0.5310 hn        1 MOL      0.090791
     50 H22        -2.9700    5.8700   -1.7300 h1        1 MOL      0.083952
     51 H23        -2.8670    4.7120   -3.6010 hc        1 MOL      0.109886
     52 H24        -4.4340    4.0730   -2.8700 hc        1 MOL      0.109886
     53 N5         -4.0940    3.6840    0.4250 n         1 MOL      0.038323
     54 C17        -5.1760    3.3490    1.3690 c3        1 MOL     -0.226961
     55 C18        -6.0830    2.2050    1.0210 c         1 MOL      0.544618
     56 O9         -7.1630    1.9560    1.5920 o         1 MOL     -0.614835
     57 H25        -3.3470    3.0180    0.3040 hn        1 MOL     -0.108974
     58 H26        -5.8790    4.1810    1.4170 h1        1 MOL      0.109115
     59 H27        -4.7670    3.1760    2.3650 h1        1 MOL      0.109115
     60 N6         -5.7180    1.4720    0.0480 n         1 MOL     -0.224706
     61 C19        -6.6470    0.5170   -0.6280 c3        1 MOL      0.050862
     62 C20        -6.8840   -0.7890    0.1950 c         1 MOL      0.460058
     63 O10        -7.7860   -1.5610   -0.2200 o         1 MOL     -0.537591
     64 C21        -6.2030    0.1650   -2.0350 c3        1 MOL     -0.461979
     65 C22        -5.1750   -0.9910   -2.0570 c         1 MOL      0.625861
     66 N7         -5.1870   -1.8430   -3.0310 n         1 MOL     -0.680015
     67 O11        -4.2850   -1.0390   -1.1800 o         1 MOL     -0.531077
     68 H28        -4.8640    1.7040   -0.4310 hn        1 MOL      0.245310
     69 H29        -7.6190    0.9950   -0.6400 h1        1 MOL      0.108419
     70 H30        -5.9610    1.0690   -2.5950 hc        1 MOL      0.152755
     71 H31        -7.0810   -0.2820   -2.5200 hc        1 MOL      0.152755
     72 H32        -5.9380   -1.8080   -3.6920 hn        1 MOL      0.347780
     73 H33        -4.4540   -2.5320   -3.0700 hn        1 MOL      0.347780
     74 N8         -6.1610   -0.9240    1.3490 n         1 MOL     -0.208443
     75 C23        -6.4780   -1.9560    2.4030 c3        1 MOL     -0.120421
     76 C24        -5.4120   -3.0740    2.5860 c         1 MOL      0.498321
     77 O12        -5.4550   -3.7990    3.5600 o         1 MOL     -0.560435
     78 H34        -5.4070   -0.2590    1.4430 hn        1 MOL      0.238580
     79 H35        -7.3580   -2.5510    2.1540 h1        1 MOL      0.101337
     80 H36        -6.6650   -1.4970    3.3740 h1        1 MOL      0.101337
     81 N9         -4.3590   -3.0310    1.8040 n         1 MOL     -0.127407
     82 C25        -3.1040   -3.8000    1.9120 c3        1 MOL     -0.093443
     83 C26        -1.8480   -3.0040    1.4350 c         1 MOL      0.558112
     84 O13        -1.9540   -2.0060    0.7890 o         1 MOL     -0.483951
     85 C27        -3.2630   -5.1570    1.2120 c3        1 MOL     -0.105899
     86 C28        -3.2530   -5.1870   -0.3430 ca        1 MOL     -0.065036
     87 C29        -2.1170   -5.7070   -1.0780 ca        1 MOL     -0.020101
     88 C30        -4.4010   -4.8640   -1.0890 ca        1 MOL     -0.020101
     89 C31        -2.1990   -5.9870   -2.4660 ca        1 MOL     -0.376020
     90 C32        -4.3860   -4.9810   -2.4740 ca        1 MOL     -0.376020
     91 C33        -3.3460   -5.5780   -3.1260 ca        1 MOL      0.462091
     92 O14        -3.4990   -5.6750   -4.4840 oh        1 MOL     -0.537606
     93 H37        -4.3910   -2.3430    1.0610 hn        1 MOL      0.051322
     94 H38        -2.8840   -3.9620    2.9650 h1        1 MOL      0.103704
     95 H39        -4.1170   -5.6590    1.6710 hc        1 MOL      0.070107
     96 H40        -2.4140   -5.7850    1.4890 hc        1 MOL      0.070107
     97 H41        -1.2210   -5.9040   -0.5060 ha        1 MOL      0.120323
     98 H42        -5.2830   -4.4590   -0.6200 ha        1 MOL      0.120323
     99 H43        -1.3850   -6.4570   -3.0040 ha        1 MOL      0.167277
    100 H44        -5.2940   -4.8900   -3.0370 ha        1 MOL      0.167277
    101 H45        -2.7250   -6.0780   -4.8770 ho        1 MOL      0.380566
    102 N10        -0.6800   -3.4680    1.9680 n         1 MOL     -0.562863
    103 C34         0.5870   -2.7850    1.7340 c3        1 MOL      0.147760
    104 C35         1.6060   -3.8080    1.3400 c         1 MOL      0.529881
    105 O15         1.5610   -4.9920    1.5850 o         1 MOL     -0.564687
    106 C36         0.9400   -1.8770    2.9430 c3        1 MOL     -0.012418
    107 C37         1.7240   -0.6320    2.5300 c3        1 MOL      0.255347
    108 C38         1.5640   -2.6800    4.0890 c3        1 MOL     -0.172874
    109 C39         2.1020    0.4190    3.5800 c3        1 MOL     -0.190338
    110 H46        -0.6910   -4.1200    2.7430 hn        1 MOL      0.341343
    111 H47         0.4530   -2.2160    0.8240 h1        1 MOL     -0.045282
    112 H48         0.0150   -1.4460    3.3210 hc        1 MOL      0.065396
    113 H49         1.0030   -0.0680    1.9260 hc        1 MOL     -0.169202
    114 H50         2.6220   -0.8450    1.9520 hc        1 MOL     -0.169202
    115 H51         0.9270   -3.5580    4.1440 hc        1 MOL      0.033580
    116 H52         2.6140   -2.8450    3.8290 hc        1 MOL      0.033580
    117 H53         1.5420   -2.1680    5.0490 hc        1 MOL      0.033580
    118 H54         2.7300    0.0780    4.3970 hc        1 MOL      0.054103
    119 H55         2.6260    1.2240    3.0560 hc        1 MOL      0.054103
    120 H56         1.1760    0.7230    4.0650 hc        1 MOL      0.054103
    121 N11         2.6270   -3.2450    0.6910 n         1 MOL     -0.190836
    122 C40         3.8130   -3.9910    0.2700 c3        1 MOL     -0.164953
    123 C41         5.1120   -3.1970    0.4790 c         1 MOL      0.464709
    124 O16         5.0820   -1.9780    0.7240 o         1 MOL     -0.394948
    125 C42         3.5790   -4.4630   -1.2230 c3        1 MOL      0.022706
    126 O17         3.4420   -3.2700   -1.9530 oh        1 MOL     -0.597856
    127 H57         2.5330   -2.3140    0.2910 hn        1 MOL      0.301052
    128 H58         3.8910   -4.9580    0.7690 h1        1 MOL      0.089310
    129 H59         2.5600   -4.8640   -1.2560 h1        1 MOL      0.080608
    130 H60         4.4630   -5.0030   -1.5410 h1        1 MOL      0.080608
    131 H61         2.6540   -2.7580   -1.7770 ho        1 MOL      0.415718
    132 N12         6.2720   -3.9340    0.4700 n         1 MOL     -0.394791
    133 C43         7.5540   -3.3010    0.8480 c3        1 MOL     -0.010496
    134 C44         7.8900   -1.9460    0.2350 c         1 MOL      0.604049
    135 O18         8.4470   -1.0900    0.8680 o         1 MOL     -0.517273
    136 C45         8.5930   -4.4120    0.5260 c3        1 MOL     -0.296341
    137 H62         6.2250   -4.9110    0.2090 hn        1 MOL      0.296730
    138 H63         7.5140   -3.0330    1.9040 h1        1 MOL      0.097086
    139 H64         8.8200   -4.5730   -0.5290 hc        1 MOL      0.100905
    140 H65         9.5530   -4.0770    0.9330 hc        1 MOL      0.100905
    141 H66         8.4260   -5.3420    1.0590 hc        1 MOL      0.100905
    142 N13         7.6100   -1.8170   -1.1010 n         1 MOL     -0.534890
    143 C46         7.8070   -0.5250   -1.7720 c3        1 MOL      0.188546
    144 C47         6.9350    0.6150   -1.2060 c         1 MOL      0.254540
    145 O19         7.2500    1.7770   -1.3840 o         1 MOL     -0.519665
    146 C48         7.5240   -0.6990   -3.3200 c3        1 MOL     -0.326186
    147 H67         7.0890   -2.5620   -1.5420 hn        1 MOL      0.325472
    148 H68         8.8460   -0.1860   -1.6860 h1        1 MOL      0.086971
    149 H69         6.5500   -1.1780   -3.3780 hc        1 MOL      0.094816
    150 H70         7.4190    0.2950   -3.7740 hc        1 MOL      0.094816
    151 H71         8.2810   -1.3250   -3.7840 hc        1 MOL      0.094816
    152 N14         5.7010    0.3640   -0.7620 n         1 MOL      0.036059
    153 C49         4.7330    1.3560   -0.2560 c3        1 MOL     -0.092757
    154 C50         5.0640    1.7240    1.1840 c         1 MOL      0.427854
    155 O20         5.0540    2.8960    1.6480 o         1 MOL     -0.530323
    156 C51         3.3480    0.8090   -0.3160 c3        1 MOL     -0.383150
    157 C52         2.9020    0.5560   -1.7530 c3        1 MOL     -0.059541
    158 C53         1.5140   -0.1560   -1.7060 c         1 MOL      0.812696
    159 O21         0.4890    0.3820   -2.1610 o         1 MOL     -0.762031
    160 O22         1.4740   -1.2750   -1.1940 o         1 MOL     -0.762031
    161 H72         5.4630   -0.6040   -0.5890 hn        1 MOL      0.086541
    162 H73         4.7980    2.2430   -0.8900 h1        1 MOL      0.081152
    163 H74         2.6570    1.4750    0.1980 hc        1 MOL      0.206327
    164 H75         3.2720   -0.1290    0.2340 hc        1 MOL      0.206327
    165 H76         3.6100    0.0010   -2.3670 hc        1 MOL     -0.016315
    166 H77         2.7070    1.5240   -2.2100 hc        1 MOL     -0.016315
    167 N15         5.6230    0.7460    1.9370 n         1 MOL     -0.079661
    168 C54         6.2710    0.9810    3.2410 c3        1 MOL     -0.245868
    169 H78         6.9990    0.1920    3.4320 h1        1 MOL      0.101859
    170 H79         6.7780    1.9460    3.2270 h1        1 MOL      0.101859
    171 H80         5.5170    0.9770    4.0290 h1        1 MOL      0.101859
    172 H81         5.5860   -0.2020    1.5870 hn        1 MOL      0.152006
    173 Ca1        -1.7880   -0.3210   -1.1210 Ca        1 MOL      1.742836
    174 O23        -1.7160   -2.7100   -2.1710 oh        1 MOL     -0.800197
    175 H82        -1.6320   -3.1860   -2.9900 ho        1 MOL      0.374543
    176 H83        -2.0740   -3.3510   -1.5550 ho        1 MOL      0.374543
    177 O24        -2.5880   -0.3610   -3.7740 oh        1 MOL     -0.800197
    178 H84        -2.7530   -0.9440   -4.5150 ho        1 MOL      0.374543
    179 H85        -2.8230    0.5100   -4.0850 ho        1 MOL      0.374543
@<TRIPOS>BOND
     1    1    2 1   
     2    1    4 1   
     3    1    5 1   
     4    1    6 1   
     5    2    3 2   
     6    2    7 1   
     7    7    8 1   
     8    7   15 1   
     9    8    9 1   
    10    8   11 1   
    11    8   16 1   
    12    9   10 2   
    13    9   19 1   
    14   11   12 1   
    15   11   17 1   
    16   11   18 1   
    17   12   13 1   
    18   12   14 1   
    19   19   20 1   
    20   19   28 1   
    21   20   21 1   
    22   20   23 1   
    23   20   29 1   
    24   21   22 2   
    25   21   41 1   
    26   23   24 1   
    27   23   30 1   
    28   23   31 1   
    29   24   25 1   
    30   24   32 1   
    31   24   33 1   
    32   25   26 1   
    33   25   34 1   
    34   25   35 1   
    35   26   27 1   
    36   26   36 1   
    37   26   37 1   
    38   27   38 1   
    39   27   39 1   
    40   27   40 1   
    41   41   42 1   
    42   41   49 1   
    43   42   43 1   
    44   42   45 1   
    45   42   50 1   
    46   43   44 2   
    47   43   53 1   
    48   45   46 1   
    49   45   51 1   
    50   45   52 1   
    51   46   47 1   
    52   46   48 1   
    53   53   54 1   
    54   53   57 1   
    55   54   55 1   
    56   54   58 1   
    57   54   59 1   
    58   55   56 2   
    59   55   60 1   
    60   60   61 1   
    61   60   68 1   
    62   61   62 1   
    63   61   64 1   
    64   61   69 1   
    65   62   63 2   
    66   62   74 1   
    67   64   65 1   
    68   64   70 1   
    69   64   71 1   
    70   65   66 1   
    71   65   67 2   
    72   66   72 1   
    73   66   73 1   
    74   74   75 1   
    75   74   78 1   
    76   75   76 1   
    77   75   79 1   
    78   75   80 1   
    79   76   77 2   
    80   76   81 1   
    81   81   82 1   
    82   81   93 1   
    83   82   83 1   
    84   82   85 1   
    85   82   94 1   
    86   83   84 2   
    87   83  102 1   
    88   85   86 1   
    89   85   95 1   
    90   85   96 1   
    91   86   87 ar  
    92   86   88 ar  
    93   87   89 ar  
    94   87   97 1   
    95   88   90 ar  
    96   88   98 1   
    97   89   91 ar  
    98   89   99 1   
    99   90   91 ar  
   100   90  100 1   
   101   91   92 1   
   102   92  101 1   
   103  102  103 1   
   104  102  110 1   
   105  103  104 1   
   106  103  106 1   
   107  103  111 1   
   108  104  105 2   
   109  104  121 1   
   110  106  107 1   
   111  106  108 1   
   112  106  112 1   
   113  107  109 1   
   114  107  113 1   
   115  107  114 1   
   116  108  115 1   
   117  108  116 1   
   118  108  117 1   
   119  109  118 1   
   120  109  119 1   
   121  109  120 1   
   122  121  122 1   
   123  121  127 1   
   124  122  123 1   
   125  122  125 1   
   126  122  128 1   
   127  123  124 2   
   128  123  132 1   
   129  125  126 1   
   130  125  129 1   
   131  125  130 1   
   132  126  131 1   
   133  132  133 1   
   134  132  137 1   
   135  133  134 1   
   136  133  136 1   
   137  133  138 1   
   138  134  135 2   
   139  134  142 1   
   140  136  139 1   
   141  136  140 1   
   142  136  141 1   
   143  142  143 1   
   144  142  147 1   
   145  143  144 1   
   146  143  146 1   
   147  143  148 1   
   148  144  145 2   
   149  144  152 1   
   150  146  149 1   
   151  146  150 1   
   152  146  151 1   
   153  152  153 1   
   154  152  161 1   
   155  153  154 1   
   156  153  156 1   
   157  153  162 1   
   158  154  155 2   
   159  154  167 1   
   160  156  157 1   
   161  156  163 1   
   162  156  164 1   
   163  157  158 1   
   164  157  165 1   
   165  157  166 1   
   166  158  159 1   
   167  158  160 1   
   168  167  168 1   
   169  167  172 1   
   170  168  169 1   
   171  168  170 1   
   172  168  171 1   
   173  174  175 1   
   174  174  176 1   
   175  177  178 1   
   176  177  179 1   
@<TRIPOS>SUBSTRUCTURE
     1 MOL         1 TEMP              0 ****  ****    0 ROOT
