@<TRIPOS>MOLECULE
MOL
  175   173     1     0     0
SMALL
resp


@<TRIPOS>ATOM
      1 C1         -1.0560    3.3860    5.8690 c3        1 MOL     -0.338838
      2 C2         -1.2290    2.9650    4.3630 c         1 MOL      0.753693
      3 O1         -0.2670    3.0920    3.6500 o         1 MOL     -0.610178
      4 H1         -0.6850    2.5370    6.4430 hc        1 MOL      0.075317
      5 H2         -0.3440    4.2100    5.9380 hc        1 MOL      0.075317
      6 H3         -2.0180    3.7040    6.2720 hc        1 MOL      0.075317
      7 N1         -2.3910    2.5270    3.9140 n         1 MOL     -0.636147
      8 C3         -2.6830    2.1010    2.5760 c3        1 MOL      0.352260
      9 C4         -3.0210    3.4240    1.8000 c         1 MOL      0.561215
     10 O2         -3.9660    4.1720    2.1370 o         1 MOL     -0.618182
     11 C5         -3.7920    1.1170    2.5500 c3        1 MOL     -0.220816
     12 C6         -4.4180    0.8140    1.1950 c         1 MOL      0.730659
     13 O3         -5.4680    0.1740    1.1600 o         1 MOL     -0.658818
     14 O4         -3.7970    0.9950    0.1300 o         1 MOL     -0.658818
     15 H4         -3.1030    2.4650    4.6260 hn        1 MOL      0.313508
     16 H5         -1.7490    1.6920    2.1770 h1        1 MOL     -0.226824
     17 H6         -4.5880    1.3580    3.2580 hc        1 MOL      0.037689
     18 H7         -3.3300    0.1800    2.8590 hc        1 MOL      0.037689
     19 N2         -2.2020    3.8190    0.8480 n         1 MOL     -0.377523
     20 C7         -2.3340    4.9690    0.0020 c3        1 MOL      0.236174
     21 C8         -3.4090    5.0280   -1.1180 c         1 MOL      0.460802
     22 O5         -3.6740    6.1210   -1.6510 o         1 MOL     -0.575734
     23 C9         -0.9120    5.3590   -0.5030 c3        1 MOL     -0.472356
     24 H8         -1.4750    3.1680    0.5880 hn        1 MOL      0.313477
     25 H9         -2.7390    5.6830    0.7260 h1        1 MOL      0.022414
     26 H10        -1.0240    6.4230   -0.7170 hc        1 MOL      0.127677
     27 H11        -0.1750    5.2660    0.3040 hc        1 MOL      0.127677
     28 H12        -0.7550    4.6050   -1.2720 hc        1 MOL      0.127677
     29 N3         -4.0930    3.8950   -1.3840 n         1 MOL     -0.204937
     30 C10        -5.1250    3.7440   -2.4110 c3        1 MOL      0.063339
     31 C11        -6.4640    3.1370   -1.9590 c         1 MOL      0.357582
     32 O6         -7.4970    3.3870   -2.5370 o         1 MOL     -0.526983
     33 C12        -4.5790    2.9030   -3.5440 c3        1 MOL     -0.069185
     34 C13        -3.7190    1.7230   -3.1760 c         1 MOL      0.805041
     35 O7         -4.0650    0.5700   -3.1970 o         1 MOL     -0.769957
     36 O8         -2.5330    1.9850   -2.8700 o         1 MOL     -0.769957
     37 H13        -3.9080    3.1450   -0.7450 hn        1 MOL     -0.004079
     38 H14        -5.4130    4.6920   -2.8780 h1        1 MOL      0.084036
     39 H15        -4.0340    3.4800   -4.2830 hc        1 MOL      0.006544
     40 H16        -5.3870    2.5180   -4.1660 hc        1 MOL      0.006544
     41 N4         -6.5280    2.3590   -0.8330 n         1 MOL     -0.165629
     42 C14        -7.6740    1.7400   -0.2110 c3        1 MOL     -0.012448
     43 C15        -7.9820    0.2960   -0.5410 c         1 MOL      0.513972
     44 O9         -9.1150   -0.1730   -0.3450 o         1 MOL     -0.598294
     45 H17        -5.6670    2.3250   -0.3100 hn        1 MOL      0.189572
     46 H18        -8.5980    2.2640   -0.4550 h1        1 MOL      0.049730
     47 H19        -7.6210    1.9020    0.8650 h1        1 MOL      0.049730
     48 N5         -7.0370   -0.4580   -1.1240 n         1 MOL     -0.161593
     49 C16        -7.2400   -1.8560   -1.5840 c3        1 MOL     -0.133842
     50 C17        -7.1350   -2.9470   -0.4440 c         1 MOL      0.493023
     51 O10        -7.6730   -4.0010   -0.4810 o         1 MOL     -0.549516
     52 C18        -6.1590   -2.1260   -2.6210 c3        1 MOL     -0.217550
     53 C19        -4.8060   -2.5240   -2.0800 c         1 MOL      0.704593
     54 N6         -4.6760   -3.7990   -1.8750 n         1 MOL     -0.830787
     55 O11        -3.9860   -1.8050   -1.6060 o         1 MOL     -0.521639
     56 H20        -6.1290   -0.0400   -1.2330 hn        1 MOL      0.113995
     57 H21        -8.1650   -1.8530   -2.1440 h1        1 MOL      0.139125
     58 H22        -5.9300   -1.3050   -3.3000 hc        1 MOL      0.080113
     59 H23        -6.4870   -2.9760   -3.2130 hc        1 MOL      0.080113
     60 H24        -5.3100   -4.4480   -2.3220 hn        1 MOL      0.351840
     61 H25        -4.0410   -4.1580   -1.1680 hn        1 MOL      0.351840
     62 N7         -6.4640   -2.5550    0.7080 n         1 MOL     -0.102287
     63 C20        -6.3430   -3.2440    1.9630 c3        1 MOL     -0.135664
     64 C21        -4.9670   -3.6440    2.4350 c         1 MOL      0.560355
     65 O12        -4.9230   -4.2970    3.4520 o         1 MOL     -0.568043
     66 H26        -6.1540   -1.5850    0.6730 hn        1 MOL      0.122497
     67 H27        -6.9270   -4.1610    2.0000 h1        1 MOL      0.081097
     68 H28        -6.7490   -2.6370    2.7650 h1        1 MOL      0.081097
     69 N8         -3.9590   -3.2110    1.6320 n         1 MOL     -0.292241
     70 C22        -2.5870   -3.6700    1.8910 c3        1 MOL      0.040324
     71 C23        -1.6190   -2.5170    1.7080 c         1 MOL      0.360679
     72 O13        -1.9470   -1.4620    1.1040 o         1 MOL     -0.332510
     73 C24        -2.2440   -4.8990    1.0070 c3        1 MOL      0.385677
     74 C25        -2.9490   -6.1980    1.4040 c3        1 MOL     -0.284108
     75 O14        -2.4690   -4.5310   -0.3330 oh        1 MOL     -0.620060
     76 H29        -4.1550   -2.6270    0.8290 hn        1 MOL      0.126835
     77 H30        -2.4910   -3.9840    2.9360 h1        1 MOL      0.063332
     78 H31        -1.2070   -5.2030    1.1250 h1        1 MOL      0.007148
     79 H32        -2.4030   -5.2810   -0.9230 ho        1 MOL      0.418246
     80 H33        -2.2600   -7.0300    1.4410 hc        1 MOL      0.064738
     81 H34        -3.3300   -6.0000    2.4110 hc        1 MOL      0.064738
     82 H35        -3.6910   -6.3540    0.6190 hc        1 MOL      0.064738
     83 N9         -0.3450   -2.7150    2.1170 n         1 MOL     -0.343985
     84 C26         0.7850   -1.9270    1.6160 c3        1 MOL     -0.012002
     85 C27         1.7880   -2.7650    0.8150 c         1 MOL      0.378758
     86 O15         2.2110   -3.8680    1.2540 o         1 MOL     -0.566197
     87 C28         1.3970   -1.1420    2.7830 c3        1 MOL      0.086826
     88 C29         2.0800   -1.9560    3.9730 c3        1 MOL     -0.187190
     89 C30         0.3790   -0.0810    3.2260 c3        1 MOL     -0.642364
     90 C31         2.8850   -0.9080    4.7680 c3        1 MOL     -0.052539
     91 H36        -0.1170   -3.5860    2.5560 hn        1 MOL      0.248162
     92 H37         0.3520   -1.1700    0.9640 h1        1 MOL     -0.076711
     93 H38         2.1690   -0.4850    2.3920 hc        1 MOL      0.008178
     94 H39         2.7730   -2.6830    3.5390 hc        1 MOL      0.073789
     95 H40         1.3630   -2.4730    4.6030 hc        1 MOL      0.073789
     96 H41        -0.5190   -0.5680    3.5770 hc        1 MOL      0.216722
     97 H42         0.8370    0.6020    3.9450 hc        1 MOL      0.216722
     98 H43         0.1010    0.5220    2.3650 hc        1 MOL      0.216722
     99 H44         3.4120   -0.2410    4.0880 hc        1 MOL      0.016053
    100 H45         2.2350   -0.3260    5.4290 hc        1 MOL      0.016053
    101 H46         3.6010   -1.3470    5.4730 hc        1 MOL      0.016053
    102 N10         2.2580   -2.2050   -0.2690 n         1 MOL     -0.247701
    103 C32         3.4200   -2.5480   -1.0620 c3        1 MOL      0.188889
    104 C33         4.7100   -1.8560   -0.4390 c         1 MOL      0.420239
    105 O16         4.7490   -1.0660    0.4510 o         1 MOL     -0.345034
    106 C34         3.3130   -2.3550   -2.6200 c3        1 MOL     -0.675544
    107 C35         1.9000   -2.5070   -3.2150 c         1 MOL      0.849419
    108 O17         1.1620   -3.4730   -3.0550 o         1 MOL     -0.705276
    109 O18         1.4370   -1.4980   -3.8600 o         1 MOL     -0.705276
    110 H47         1.9350   -1.2670   -0.4820 hn        1 MOL      0.390754
    111 H48         3.5130   -3.6220   -0.9290 h1        1 MOL      0.070096
    112 H49         3.8470   -3.2450   -2.9750 hc        1 MOL      0.167013
    113 H50         3.5130   -1.3340   -2.9360 hc        1 MOL      0.167013
    114 N11         5.9420   -2.1850   -0.9750 n         1 MOL     -0.672347
    115 C36         7.2180   -1.6050   -0.5600 c3        1 MOL      0.508183
    116 C37         7.2130   -0.1060   -0.5630 c         1 MOL      0.342197
    117 O19         7.5400    0.4290    0.4910 o         1 MOL     -0.516184
    118 C38         8.4050   -2.2170   -1.4340 c3        1 MOL     -0.155659
    119 C39         9.7890   -1.6400   -1.0690 ca        1 MOL     -0.059765
    120 C40        10.3150   -1.7900    0.2550 ca        1 MOL     -0.085490
    121 C41        10.3700   -0.6910   -1.9460 ca        1 MOL     -0.085490
    122 C42        11.5200   -1.1450    0.5740 ca        1 MOL     -0.175645
    123 C43        11.5460   -0.0650   -1.6470 ca        1 MOL     -0.175645
    124 C44        12.0290   -0.2470   -0.3300 ca        1 MOL     -0.004915
    125 H51         5.9290   -2.8950   -1.6860 hn        1 MOL      0.278613
    126 H52         7.4610   -1.9830    0.4350 h1        1 MOL     -0.005740
    127 H53         8.1690   -2.1810   -2.4960 hc        1 MOL      0.052497
    128 H54         8.3740   -3.2720   -1.1660 hc        1 MOL      0.052497
    129 H55         9.9080   -2.4050    1.0510 ha        1 MOL      0.109959
    130 H56         9.9030   -0.5540   -2.9140 ha        1 MOL      0.109959
    131 H57        12.0090   -1.2730    1.5230 ha        1 MOL      0.125024
    132 H58        12.1130    0.5290   -2.3540 ha        1 MOL      0.125024
    133 H59        12.9610    0.1960    0.0080 ha        1 MOL      0.059799
    134 N12         6.7550    0.6250   -1.6220 n         1 MOL     -0.163005
    135 C45         6.7690    2.1200   -1.5710 c3        1 MOL      0.146386
    136 C46         5.9030    2.7970   -0.4270 c         1 MOL      0.231252
    137 O20         6.3190    3.7970    0.0810 o         1 MOL     -0.480127
    138 C47         6.2000    2.5410   -2.9270 c3        1 MOL     -0.125209
    139 C48         6.2400    1.3350   -3.8400 c3        1 MOL     -0.063170
    140 C49         6.2390    0.1350   -2.8990 c3        1 MOL     -0.013941
    141 H60         7.7980    2.4980   -1.5000 h1        1 MOL      0.041682
    142 H61         5.1520    2.7920   -2.7900 hc        1 MOL      0.058031
    143 H62         6.8170    3.3410   -3.3300 hc        1 MOL      0.058031
    144 H63         5.3360    1.3250   -4.4380 hc        1 MOL      0.040046
    145 H64         7.1150    1.3090   -4.4860 hc        1 MOL      0.040046
    146 H65         5.2430   -0.2270   -2.6430 h1        1 MOL      0.037205
    147 H66         6.7920   -0.7040   -3.3280 h1        1 MOL      0.037205
    148 N13         4.8790    2.0920    0.0090 n         1 MOL     -0.027328
    149 C50         4.0110    2.5350    1.0780 c3        1 MOL     -0.228135
    150 C51         4.6570    2.2470    2.4580 c         1 MOL      0.477280
    151 O21         4.4390    3.0110    3.4010 o         1 MOL     -0.557718
    152 C52         2.6420    1.8510    1.0030 c3        1 MOL     -0.031632
    153 C53         1.7760    2.3620   -0.2180 c3        1 MOL     -0.011169
    154 C54         0.5380    1.5200   -0.4660 c         1 MOL      0.690483
    155 O22         0.7810    0.3740   -0.9390 o         1 MOL     -0.718602
    156 O23        -0.6360    1.8370   -0.2320 o         1 MOL     -0.718602
    157 H67         4.6580    1.1460   -0.2760 hn        1 MOL      0.171566
    158 H68         3.9680    3.6240    0.9780 h1        1 MOL      0.143055
    159 H69         2.1430    2.0650    1.9450 hc        1 MOL      0.105118
    160 H70         2.8500    0.7930    0.8650 hc        1 MOL      0.105118
    161 H71         2.3860    2.2710   -1.1160 hc        1 MOL     -0.009910
    162 H72         1.4900    3.4130   -0.1220 hc        1 MOL     -0.009910
    163 N14         5.5110    1.2090    2.5720 n         1 MOL      0.003569
    164 C55         6.1910    0.7910    3.7710 c3        1 MOL     -0.268667
    165 H73         6.0910   -0.2880    3.8880 h1        1 MOL      0.091820
    166 H74         7.2470    1.0520    3.7010 h1        1 MOL      0.091820
    167 H75         5.7500    1.2920    4.6330 h1        1 MOL      0.091820
    168 H76         5.5110    0.5810    1.7880 hn        1 MOL      0.050801
    169 Ca1        -1.9620   -0.0100   -1.3060 Ca        1 MOL      1.681071
    170 O24        -0.9720   -0.3880   -3.7460 oh        1 MOL     -0.834721
    171 H77        -0.0340   -0.5380   -3.8630 ho        1 MOL      0.392400
    172 H78        -1.1830    0.3160   -4.3480 ho        1 MOL      0.392400
    173 O25        -0.9450   -2.5110   -1.4630 oh        1 MOL     -0.834721
    174 H79        -1.3200   -3.3010   -1.0750 ho        1 MOL      0.392400
    175 H80        -0.2490   -2.8340   -2.0350 ho        1 MOL      0.392400
@<TRIPOS>BOND
     1    1    2 1   
     2    1    4 1   
     3    1    5 1   
     4    1    6 1   
     5    2    3 2   
     6    2    7 1   
     7    7    8 1   
     8    7   15 1   
     9    8    9 1   
    10    8   11 1   
    11    8   16 1   
    12    9   10 2   
    13    9   19 1   
    14   11   12 1   
    15   11   17 1   
    16   11   18 1   
    17   12   13 1   
    18   12   14 1   
    19   19   20 1   
    20   19   24 1   
    21   20   21 1   
    22   20   23 1   
    23   20   25 1   
    24   21   22 2   
    25   21   29 1   
    26   23   26 1   
    27   23   27 1   
    28   23   28 1   
    29   29   30 1   
    30   29   37 1   
    31   30   31 1   
    32   30   33 1   
    33   30   38 1   
    34   31   32 2   
    35   31   41 1   
    36   33   34 1   
    37   33   39 1   
    38   33   40 1   
    39   34   35 1   
    40   34   36 1   
    41   41   42 1   
    42   41   45 1   
    43   42   43 1   
    44   42   46 1   
    45   42   47 1   
    46   43   44 2   
    47   43   48 1   
    48   48   49 1   
    49   48   56 1   
    50   49   50 1   
    51   49   52 1   
    52   49   57 1   
    53   50   51 2   
    54   50   62 1   
    55   52   53 1   
    56   52   58 1   
    57   52   59 1   
    58   53   54 1   
    59   53   55 2   
    60   54   60 1   
    61   54   61 1   
    62   62   63 1   
    63   62   66 1   
    64   63   64 1   
    65   63   67 1   
    66   63   68 1   
    67   64   65 2   
    68   64   69 1   
    69   69   70 1   
    70   69   76 1   
    71   70   71 1   
    72   70   73 1   
    73   70   77 1   
    74   71   72 2   
    75   71   83 1   
    76   73   74 1   
    77   73   75 1   
    78   73   78 1   
    79   74   80 1   
    80   74   81 1   
    81   74   82 1   
    82   75   79 1   
    83   83   84 1   
    84   83   91 1   
    85   84   85 1   
    86   84   87 1   
    87   84   92 1   
    88   85   86 2   
    89   85  102 1   
    90   87   88 1   
    91   87   89 1   
    92   87   93 1   
    93   88   90 1   
    94   88   94 1   
    95   88   95 1   
    96   89   96 1   
    97   89   97 1   
    98   89   98 1   
    99   90   99 1   
   100   90  100 1   
   101   90  101 1   
   102  102  103 1   
   103  102  110 1   
   104  103  104 1   
   105  103  106 1   
   106  103  111 1   
   107  104  105 2   
   108  104  114 1   
   109  106  107 1   
   110  106  112 1   
   111  106  113 1   
   112  107  108 1   
   113  107  109 1   
   114  114  115 1   
   115  114  125 1   
   116  115  116 1   
   117  115  118 1   
   118  115  126 1   
   119  116  117 2   
   120  116  134 1   
   121  118  119 1   
   122  118  127 1   
   123  118  128 1   
   124  119  120 ar  
   125  119  121 ar  
   126  120  122 ar  
   127  120  129 1   
   128  121  123 ar  
   129  121  130 1   
   130  122  124 ar  
   131  122  131 1   
   132  123  124 ar  
   133  123  132 1   
   134  124  133 1   
   135  134  135 1   
   136  134  140 1   
   137  135  136 1   
   138  135  138 1   
   139  135  141 1   
   140  136  137 2   
   141  136  148 1   
   142  138  139 1   
   143  138  142 1   
   144  138  143 1   
   145  139  140 1   
   146  139  144 1   
   147  139  145 1   
   148  140  146 1   
   149  140  147 1   
   150  148  149 1   
   151  148  157 1   
   152  149  150 1   
   153  149  152 1   
   154  149  158 1   
   155  150  151 2   
   156  150  163 1   
   157  152  153 1   
   158  152  159 1   
   159  152  160 1   
   160  153  154 1   
   161  153  161 1   
   162  153  162 1   
   163  154  155 1   
   164  154  156 1   
   165  163  164 1   
   166  163  168 1   
   167  164  165 1   
   168  164  166 1   
   169  164  167 1   
   170  170  171 1   
   171  170  172 1   
   172  173  174 1   
   173  173  175 1   
@<TRIPOS>SUBSTRUCTURE
     1 MOL         1 TEMP              0 ****  ****    0 ROOT
