@<TRIPOS>MOLECULE
MOL
  172   171     1     0     0
SMALL
resp


@<TRIPOS>ATOM
      1 C1          0.5150    4.2650    5.2860 c3        1 MOL     -0.417863
      2 C2         -0.0570    4.1380    3.8840 c         1 MOL      0.722807
      3 O1          0.6060    4.4520    2.8900 o         1 MOL     -0.526207
      4 H1          1.5620    3.9620    5.2790 hc        1 MOL      0.098242
      5 H2          0.4390    5.3010    5.6180 hc        1 MOL      0.098242
      6 H3         -0.0440    3.6230    5.9670 hc        1 MOL      0.098242
      7 N1         -1.3790    3.9560    3.8330 n         1 MOL     -0.662314
      8 C3         -2.0870    3.6740    2.5800 c3        1 MOL      0.200090
      9 C4         -2.1950    4.9160    1.6490 c         1 MOL      0.563168
     10 O2         -1.9140    6.0320    2.0550 o         1 MOL     -0.559529
     11 C5         -3.4730    3.0630    3.0210 c3        1 MOL     -0.338577
     12 C6         -4.1460    2.3530    1.8730 c         1 MOL      0.639264
     13 O3         -3.4600    1.9790    0.8810 o         1 MOL     -0.647006
     14 O4         -5.3910    2.0670    1.9280 o         1 MOL     -0.647006
     15 H4         -1.8910    3.9710    4.6990 hn        1 MOL      0.333773
     16 H5         -1.6320    2.8080    2.0960 h1        1 MOL      0.113092
     17 H6         -4.0410    3.9390    3.3090 hc        1 MOL      0.071801
     18 H7         -3.3850    2.3460    3.8410 hc        1 MOL      0.071801
     19 N2         -2.5870    4.7130    0.4310 n         1 MOL     -0.345278
     20 C7         -2.8230    5.6590   -0.5770 c3        1 MOL      0.025950
     21 C8         -3.7860    5.1350   -1.7010 c         1 MOL      0.598463
     22 O5         -4.3120    5.9320   -2.4970 o         1 MOL     -0.582467
     23 C9         -1.4540    5.7950   -1.2500 c3        1 MOL     -0.238442
     24 H8         -2.6810    3.7390    0.1960 hn        1 MOL      0.176233
     25 H9         -3.1890    6.5570   -0.0860 h1        1 MOL      0.068491
     26 H10        -0.9470    6.4060   -0.5080 hc        1 MOL      0.070761
     27 H11        -0.9250    4.8470   -1.3610 hc        1 MOL      0.070761
     28 H12        -1.5220    6.3450   -2.1910 hc        1 MOL      0.070761
     29 N3         -4.1280    3.8390   -1.7030 n         1 MOL     -0.622190
     30 C10        -4.8360    3.2530   -2.8320 c3        1 MOL      0.255995
     31 C11        -6.0660    2.3820   -2.3810 c         1 MOL      0.420347
     32 O6         -7.0530    2.3500   -3.0600 o         1 MOL     -0.563776
     33 C12        -3.8820    2.4030   -3.7050 c3        1 MOL     -0.329366
     34 C13        -3.2230    1.3380   -2.8830 c         1 MOL      0.793689
     35 O7         -2.0980    0.9350   -3.2260 o         1 MOL     -0.701972
     36 O8         -3.8400    0.8440   -1.8830 o         1 MOL     -0.701972
     37 H13        -3.7000    3.1930   -1.0570 hn        1 MOL      0.436293
     38 H14        -5.2470    4.0240   -3.4900 h1        1 MOL      0.051500
     39 H15        -3.1240    3.1400   -3.9640 hc        1 MOL      0.074323
     40 H16        -4.3790    1.9570   -4.5660 hc        1 MOL      0.074323
     41 N4         -6.1660    2.0000   -1.0780 n         1 MOL     -0.134319
     42 C14        -7.2720    1.1710   -0.5890 c3        1 MOL     -0.268078
     43 C15        -7.2970   -0.3450   -0.8510 c         1 MOL      0.652294
     44 O9         -8.3320   -0.9750   -0.7640 o         1 MOL     -0.622116
     45 H17        -5.3450    2.0930   -0.4950 hn        1 MOL      0.048209
     46 H18        -8.2080    1.4820   -1.0470 h1        1 MOL      0.119785
     47 H19        -7.3860    1.4350    0.4680 h1        1 MOL      0.119785
     48 N5         -6.1200   -0.8960   -1.2760 n         1 MOL     -0.466098
     49 C16        -6.1710   -2.1730   -1.9970 c3        1 MOL      0.298078
     50 C17        -6.2250   -3.4180   -1.0590 c         1 MOL      0.326647
     51 O10        -5.9950   -4.5390   -1.4460 o         1 MOL     -0.497765
     52 C18        -5.0160   -2.2720   -2.9790 c3        1 MOL     -0.336813
     53 C19        -3.6280   -2.3380   -2.3400 c         1 MOL      0.776010
     54 N6         -2.6980   -2.8080   -3.0840 n         1 MOL     -0.606489
     55 O11        -3.4570   -2.0180   -1.1850 o         1 MOL     -0.810401
     56 H20        -5.3240   -0.2850   -1.3990 hn        1 MOL      0.277804
     57 H21        -7.0560   -2.3480   -2.6180 h1        1 MOL      0.031979
     58 H22        -5.0190   -1.4150   -3.6620 hc        1 MOL      0.072892
     59 H23        -5.1360   -3.2050   -3.5380 hc        1 MOL      0.072892
     60 H24        -2.9090   -3.0580   -4.0410 hn        1 MOL      0.307217
     61 H25        -1.7490   -2.4710   -3.0000 hn        1 MOL      0.307217
     62 N7         -6.2390   -3.0580    0.2380 n         1 MOL     -0.112973
     63 C20        -6.2530   -4.0070    1.3170 c3        1 MOL     -0.283997
     64 C21        -4.8890   -4.4750    1.8670 c         1 MOL      0.564738
     65 O12        -4.8500   -5.1730    2.8640 o         1 MOL     -0.573844
     66 H26        -6.4170   -2.0810    0.4010 hn        1 MOL      0.186331
     67 H27        -6.8250   -4.8540    0.9410 h1        1 MOL      0.121897
     68 H28        -6.7860   -3.5790    2.1650 h1        1 MOL      0.121897
     69 N8         -3.7710   -4.0000    1.2870 n         1 MOL     -0.331679
     70 C22        -2.3880   -4.5570    1.5510 c3        1 MOL     -0.098258
     71 C23        -1.3020   -3.5130    1.5870 c         1 MOL      0.406588
     72 O13        -1.4320   -2.5110    0.9280 o         1 MOL     -0.276544
     73 C24        -2.0530   -5.5000    0.3890 c3        1 MOL      0.618334
     74 C25        -2.9800   -6.7570    0.3710 c3        1 MOL     -0.477707
     75 O14        -2.0650   -4.7880   -0.8480 oh        1 MOL     -0.572743
     76 H29        -3.8340   -3.3330    0.5320 hn        1 MOL      0.256781
     77 H30        -2.3340   -5.2440    2.4000 h1        1 MOL      0.066900
     78 H31        -1.0230   -5.8400    0.5010 h1        1 MOL     -0.083285
     79 H32        -1.8350   -3.8890   -0.6030 ho        1 MOL      0.254615
     80 H33        -3.9780   -6.5570   -0.0100 hc        1 MOL      0.112411
     81 H34        -2.4660   -7.4750   -0.2750 hc        1 MOL      0.112411
     82 H35        -3.0270   -7.1590    1.3770 hc        1 MOL      0.112411
     83 N9         -0.2040   -3.7480    2.3880 n         1 MOL     -0.491023
     84 C26         0.9780   -2.8220    2.3180 c3        1 MOL      0.053641
     85 C27         1.6940   -3.1860    1.0110 c         1 MOL      0.597188
     86 O15         2.1390   -4.3410    0.8150 o         1 MOL     -0.604110
     87 C28         1.8100   -2.7520    3.5860 c3        1 MOL     -0.016848
     88 C29         0.9880   -2.0540    4.6960 c3        1 MOL      0.249598
     89 C30         3.1610   -2.0170    3.4770 c3        1 MOL     -0.230687
     90 C31         1.5570   -2.0660    6.0540 c3        1 MOL     -0.355880
     91 H36         0.0390   -4.6250    2.8270 hn        1 MOL      0.279736
     92 H37         0.5200   -1.8500    2.1150 h1        1 MOL      0.045922
     93 H38         1.9490   -3.7980    3.8680 hc        1 MOL      0.013012
     94 H39        -0.0110   -2.4810    4.6450 hc        1 MOL     -0.033337
     95 H40         0.7530   -1.0260    4.3930 hc        1 MOL     -0.033337
     96 H41         3.6610   -2.0390    4.4490 hc        1 MOL      0.058518
     97 H42         3.6930   -2.5350    2.6770 hc        1 MOL      0.058518
     98 H43         2.9850   -1.0060    3.1220 hc        1 MOL      0.058518
     99 H44         0.7470   -1.7440    6.7100 hc        1 MOL      0.076288
    100 H45         1.8660   -3.0760    6.3380 hc        1 MOL      0.076288
    101 H46         2.3890   -1.3520    6.0870 hc        1 MOL      0.076288
    102 N10         1.7580   -2.2600    0.0910 n         1 MOL     -0.360057
    103 C32         2.6380   -2.2270   -1.0210 c3        1 MOL      0.036357
    104 C33         4.0730   -1.6920   -0.7020 c         1 MOL      0.604334
    105 O16         4.1930   -0.9980    0.3010 o         1 MOL     -0.433520
    106 C34         1.8930   -1.3600   -2.0930 c3        1 MOL     -0.332868
    107 C35         0.4250   -1.6430   -2.3330 c         1 MOL      0.794520
    108 O17        -0.3930   -1.2030   -1.5380 o         1 MOL     -0.676856
    109 O18         0.1550   -2.1870   -3.4170 o         1 MOL     -0.676856
    110 H47         1.2650   -1.3970    0.2450 hn        1 MOL      0.215924
    111 H48         2.8780   -3.2330   -1.3790 h1        1 MOL      0.062227
    112 H49         2.4680   -1.4500   -3.0140 hc        1 MOL      0.100406
    113 H50         1.9740   -0.3140   -1.7870 hc        1 MOL      0.100406
    114 N11         5.0500   -1.8540   -1.6220 n         1 MOL     -0.843670
    115 C36         6.4200   -1.5080   -1.2160 c3        1 MOL      0.609901
    116 C37         6.5960    0.0030   -1.1710 c         1 MOL      0.250466
    117 O19         7.4180    0.4110   -0.3180 o         1 MOL     -0.465543
    118 C38         7.3950   -2.1990   -2.1510 c3        1 MOL     -0.198240
    119 C39         8.7910   -1.8030   -1.9750 ca        1 MOL      0.125032
    120 C40         9.4040   -2.1110   -0.7010 ca        1 MOL     -0.282940
    121 C41         9.4400   -0.9920   -2.9530 ca        1 MOL     -0.282940
    122 C42        10.7370   -1.7860   -0.4460 ca        1 MOL      0.034543
    123 C43        10.7590   -0.5270   -2.5820 ca        1 MOL      0.034543
    124 C44        11.3990   -1.0320   -1.4360 ca        1 MOL     -0.254439
    125 H51         4.9170   -2.3500   -2.4930 hn        1 MOL      0.363128
    126 H52         6.6930   -1.9220   -0.2490 h1        1 MOL     -0.014017
    127 H53         7.0540   -1.9640   -3.1580 hc        1 MOL      0.046897
    128 H54         7.2850   -3.2720   -2.0190 hc        1 MOL      0.046897
    129 H55         8.8340   -2.6220    0.0620 ha        1 MOL      0.153963
    130 H56         8.9520   -0.8250   -3.8990 ha        1 MOL      0.153963
    131 H57        11.1560   -2.1830    0.4740 ha        1 MOL      0.083604
    132 H58        11.3000    0.0760   -3.2870 ha        1 MOL      0.083604
    133 H59        12.4320   -0.8140   -1.2320 ha        1 MOL      0.120392
    134 N12         5.8900    0.8380   -1.9820 n         1 MOL     -0.015774
    135 C45         5.9380    2.2870   -1.9430 c3        1 MOL     -0.002856
    136 C46         5.3240    2.8410   -0.5840 c         1 MOL      0.307919
    137 O20         5.6340    3.9970   -0.2810 o         1 MOL     -0.494955
    138 C47         5.1430    2.7230   -3.1960 c3        1 MOL     -0.003137
    139 C48         5.4000    1.6100   -4.2250 c3        1 MOL      0.015098
    140 C49         5.2290    0.4610   -3.3060 c3        1 MOL     -0.133322
    141 H60         6.9520    2.6720   -1.9300 h1        1 MOL      0.060993
    142 H61         4.0880    2.7140   -2.9630 hc        1 MOL      0.035945
    143 H62         5.4550    3.6850   -3.6240 hc        1 MOL      0.035945
    144 H63         4.7080    1.6010   -5.0650 hc        1 MOL      0.016695
    145 H64         6.4210    1.7000   -4.5760 hc        1 MOL      0.016695
    146 H65         4.1600    0.2950   -3.2150 h1        1 MOL      0.066378
    147 H66         5.8280   -0.3690   -3.7060 h1        1 MOL      0.066378
    148 N13         4.4620    2.0580    0.0920 n         1 MOL     -0.181147
    149 C50         4.0200    2.3380    1.4650 c3        1 MOL      0.055660
    150 C51         4.8450    1.7620    2.6650 c         1 MOL      0.398553
    151 O21         4.7870    2.2700    3.8040 o         1 MOL     -0.553974
    152 C52         2.5270    1.9810    1.6430 c3        1 MOL      0.032143
    153 C53         1.7050    2.2240    0.3680 c3        1 MOL     -0.001449
    154 C54         0.2410    1.6810    0.4970 c         1 MOL      0.495737
    155 O22        -0.6790    2.1070   -0.2690 o         1 MOL     -0.722955
    156 O23         0.0480    0.6310    1.1660 o         1 MOL     -0.722955
    157 H67         4.3000    1.1230   -0.2670 hn        1 MOL      0.094059
    158 H68         4.0940    3.4160    1.6350 h1        1 MOL      0.056738
    159 H69         2.2160    2.6270    2.4650 hc        1 MOL      0.017023
    160 H70         2.4890    0.9520    2.0150 hc        1 MOL      0.017023
    161 H71         2.1550    1.5260   -0.3430 hc        1 MOL      0.047044
    162 H72         1.7780    3.2550    0.0360 hc        1 MOL      0.047044
    163 N14         5.6080    0.7420    2.3470 n         1 MOL     -0.073751
    164 C55         6.6900    0.2700    3.2540 c3        1 MOL     -0.088860
    165 H73         7.6350    0.2490    2.7110 h1        1 MOL      0.052158
    166 H74         6.7760    0.9490    4.1030 h1        1 MOL      0.052158
    167 H75         6.4540   -0.7320    3.6110 h1        1 MOL      0.052158
    168 H76         5.5070    0.3310    1.4260 hn        1 MOL      0.070580
    169 Ca1        -2.1120   -0.0120   -0.1000 Ca        1 MOL      1.741066
    170 O24        -3.1930   -0.5090    2.3110 oh        1 MOL     -0.920656
    171 H77        -4.1530   -0.4910    2.3180 ho        1 MOL      0.439842
    172 H78        -2.9380   -0.2030    3.1880 ho        1 MOL      0.439842
@<TRIPOS>BOND
     1    1    2 1   
     2    1    4 1   
     3    1    5 1   
     4    1    6 1   
     5    2    3 2   
     6    2    7 1   
     7    7    8 1   
     8    7   15 1   
     9    8    9 1   
    10    8   11 1   
    11    8   16 1   
    12    9   10 2   
    13    9   19 1   
    14   11   12 1   
    15   11   17 1   
    16   11   18 1   
    17   12   13 1   
    18   12   14 1   
    19   19   20 1   
    20   19   24 1   
    21   20   21 1   
    22   20   23 1   
    23   20   25 1   
    24   21   22 2   
    25   21   29 1   
    26   23   26 1   
    27   23   27 1   
    28   23   28 1   
    29   29   30 1   
    30   29   37 1   
    31   30   31 1   
    32   30   33 1   
    33   30   38 1   
    34   31   32 2   
    35   31   41 1   
    36   33   34 1   
    37   33   39 1   
    38   33   40 1   
    39   34   35 1   
    40   34   36 1   
    41   41   42 1   
    42   41   45 1   
    43   42   43 1   
    44   42   46 1   
    45   42   47 1   
    46   43   44 2   
    47   43   48 1   
    48   48   49 1   
    49   48   56 1   
    50   49   50 1   
    51   49   52 1   
    52   49   57 1   
    53   50   51 2   
    54   50   62 1   
    55   52   53 1   
    56   52   58 1   
    57   52   59 1   
    58   53   54 1   
    59   53   55 2   
    60   54   60 1   
    61   54   61 1   
    62   62   63 1   
    63   62   66 1   
    64   63   64 1   
    65   63   67 1   
    66   63   68 1   
    67   64   65 2   
    68   64   69 1   
    69   69   70 1   
    70   69   76 1   
    71   70   71 1   
    72   70   73 1   
    73   70   77 1   
    74   71   72 2   
    75   71   83 1   
    76   73   74 1   
    77   73   75 1   
    78   73   78 1   
    79   74   80 1   
    80   74   81 1   
    81   74   82 1   
    82   75   79 1   
    83   83   84 1   
    84   83   91 1   
    85   84   85 1   
    86   84   87 1   
    87   84   92 1   
    88   85   86 2   
    89   85  102 1   
    90   87   88 1   
    91   87   89 1   
    92   87   93 1   
    93   88   90 1   
    94   88   94 1   
    95   88   95 1   
    96   89   96 1   
    97   89   97 1   
    98   89   98 1   
    99   90   99 1   
   100   90  100 1   
   101   90  101 1   
   102  102  103 1   
   103  102  110 1   
   104  103  104 1   
   105  103  106 1   
   106  103  111 1   
   107  104  105 2   
   108  104  114 1   
   109  106  107 1   
   110  106  112 1   
   111  106  113 1   
   112  107  108 1   
   113  107  109 1   
   114  114  115 1   
   115  114  125 1   
   116  115  116 1   
   117  115  118 1   
   118  115  126 1   
   119  116  117 2   
   120  116  134 1   
   121  118  119 1   
   122  118  127 1   
   123  118  128 1   
   124  119  120 ar  
   125  119  121 ar  
   126  120  122 ar  
   127  120  129 1   
   128  121  123 ar  
   129  121  130 1   
   130  122  124 ar  
   131  122  131 1   
   132  123  124 ar  
   133  123  132 1   
   134  124  133 1   
   135  134  135 1   
   136  134  140 1   
   137  135  136 1   
   138  135  138 1   
   139  135  141 1   
   140  136  137 2   
   141  136  148 1   
   142  138  139 1   
   143  138  142 1   
   144  138  143 1   
   145  139  140 1   
   146  139  144 1   
   147  139  145 1   
   148  140  146 1   
   149  140  147 1   
   150  148  149 1   
   151  148  157 1   
   152  149  150 1   
   153  149  152 1   
   154  149  158 1   
   155  150  151 2   
   156  150  163 1   
   157  152  153 1   
   158  152  159 1   
   159  152  160 1   
   160  153  154 1   
   161  153  161 1   
   162  153  162 1   
   163  154  155 1   
   164  154  156 1   
   165  163  164 1   
   166  163  168 1   
   167  164  165 1   
   168  164  166 1   
   169  164  167 1   
   170  170  171 1   
   171  170  172 1   
@<TRIPOS>SUBSTRUCTURE
     1 MOL         1 TEMP              0 ****  ****    0 ROOT
