@<TRIPOS>MOLECULE
MOL
  189   185     1     0     0
SMALL
resp


@<TRIPOS>ATOM
      1 C1          0.5750   -2.9040    5.9500 c3        1 MOL     -0.386459
      2 C2          1.0480   -2.8200    4.5170 c         1 MOL      0.807680
      3 O1          0.9850   -1.8030    3.8750 o         1 MOL     -0.646618
      4 H1         -0.4030   -2.4300    6.0380 hc        1 MOL      0.091308
      5 H2          0.4990   -3.9500    6.2480 hc        1 MOL      0.091308
      6 H3          1.2860   -2.3920    6.5980 hc        1 MOL      0.091308
      7 N1          1.6050   -3.8910    3.9840 n         1 MOL     -0.594716
      8 C3          2.1860   -3.8010    2.6170 c3        1 MOL      0.120456
      9 C4          2.1990   -5.0910    1.7980 c         1 MOL      0.502245
     10 O2          2.5140   -6.1290    2.2960 o         1 MOL     -0.587725
     11 C5          3.6820   -3.3360    2.8410 c3        1 MOL     -0.193778
     12 C6          4.3240   -2.8050    1.5750 c         1 MOL      0.753783
     13 O3          3.6120   -2.6780    0.5170 o         1 MOL     -0.685994
     14 O4          5.5610   -2.5500    1.6050 o         1 MOL     -0.685994
     15 H4          1.6840   -4.7940    4.4330 hn        1 MOL      0.314865
     16 H5          1.7290   -2.9890    2.0620 h1        1 MOL      0.030412
     17 H6          4.2010   -4.1660    3.3270 hc        1 MOL      0.037005
     18 H7          3.7820   -2.4930    3.5250 hc        1 MOL      0.037005
     19 N2          1.8200   -4.9720    0.5550 n         1 MOL     -0.112962
     20 C7          1.8400   -6.0710   -0.4710 c3        1 MOL     -0.308676
     21 C8          2.5220   -5.6270   -1.7660 c         1 MOL      0.520841
     22 O5          2.4580   -6.3850   -2.7640 o         1 MOL     -0.565283
     23 C9          0.2890   -6.4040   -0.7270 c3        1 MOL      0.425230
     24 C10        -0.5410   -5.1580   -1.2830 c3        1 MOL     -0.051582
     25 C11        -0.2720   -6.8850    0.6160 c3        1 MOL     -0.267782
     26 C12        -2.0410   -5.4610   -1.6300 c3        1 MOL     -0.223850
     27 H8          1.4990   -4.0530    0.2780 hn        1 MOL      0.124214
     28 H9          2.2870   -6.9700   -0.0500 h1        1 MOL      0.147280
     29 H10         0.1980   -7.2540   -1.4020 hc        1 MOL     -0.078147
     30 H11        -0.0340   -5.0260   -2.2400 hc        1 MOL      0.043520
     31 H12        -0.4820   -4.3280   -0.5830 hc        1 MOL      0.043520
     32 H13        -0.2600   -6.1220    1.3880 hc        1 MOL      0.030691
     33 H14        -1.3130   -7.2110    0.5440 hc        1 MOL      0.030691
     34 H15         0.4030   -7.7000    0.8790 hc        1 MOL      0.030691
     35 H16        -2.1570   -6.3240   -2.2800 hc        1 MOL      0.054051
     36 H17        -2.5800   -5.6390   -0.7060 hc        1 MOL      0.054051
     37 H18        -2.5550   -4.6000   -2.0790 hc        1 MOL      0.054051
     38 N3          3.1000   -4.3980   -1.7590 n         1 MOL     -0.419744
     39 C13         3.7030   -3.8800   -2.9980 c3        1 MOL     -0.081335
     40 C14         4.9960   -3.1190   -2.8400 c         1 MOL      0.415963
     41 O6          5.6210   -2.7950   -3.8160 o         1 MOL     -0.524160
     42 C15         2.6670   -3.0540   -3.8310 c3        1 MOL     -0.252431
     43 C16         2.1850   -1.7880   -3.1610 c         1 MOL      0.751950
     44 O7          2.8230   -1.1860   -2.1970 o         1 MOL     -0.675936
     45 O8          1.2260   -1.2560   -3.7500 o         1 MOL     -0.675936
     46 H19         3.0750   -3.8630   -0.9040 hn        1 MOL      0.333093
     47 H20         3.8910   -4.6860   -3.7140 h1        1 MOL      0.126800
     48 H21         1.8010   -3.6960   -3.9940 hc        1 MOL      0.095412
     49 H22         3.1110   -2.7160   -4.7740 hc        1 MOL      0.095412
     50 N4          5.4160   -2.7700   -1.5960 n         1 MOL     -0.178592
     51 C17         6.6540   -2.1430   -1.3190 c3        1 MOL     -0.024573
     52 C18         6.7980   -0.7420   -1.9960 c         1 MOL      0.314380
     53 O9          7.9330   -0.4050   -2.4020 o         1 MOL     -0.591814
     54 H23         4.7850   -2.8030   -0.8120 hn        1 MOL      0.088746
     55 H24         7.4100   -2.8860   -1.5680 h1        1 MOL      0.056225
     56 H25         6.7370   -1.9110   -0.2550 h1        1 MOL      0.056225
     57 N5          5.7570    0.0050   -2.3370 n         1 MOL     -0.018278
     58 C19         5.9380    1.3400   -2.9520 c3        1 MOL     -0.013743
     59 C20         6.4740    2.4370   -1.9800 c         1 MOL      0.500625
     60 O10         7.0430    3.3890   -2.4880 o         1 MOL     -0.588822
     61 C21         4.5970    1.7940   -3.4650 c3        1 MOL     -0.472168
     62 C22         3.3720    1.8290   -2.4870 c         1 MOL      0.816333
     63 O11         3.4530    1.4810   -1.2990 o         1 MOL     -0.728307
     64 O12         2.2790    2.3680   -2.8460 o         1 MOL     -0.728307
     65 H26         4.8250   -0.3380   -2.1690 hn        1 MOL      0.187501
     66 H27         6.6710    1.3510   -3.7680 h1        1 MOL      0.104519
     67 H28         4.3580    1.1620   -4.3290 hc        1 MOL      0.127167
     68 H29         4.7990    2.8390   -3.6690 hc        1 MOL      0.127167
     69 N6          6.3230    2.3330   -0.6990 n         1 MOL     -0.272772
     70 C23         6.7680    3.2450    0.3800 c3        1 MOL     -0.113519
     71 C24         5.7570    4.2110    0.9300 c         1 MOL      0.559313
     72 O13         6.1490    5.0910    1.6640 o         1 MOL     -0.593035
     73 H30         5.7350    1.5740   -0.3840 hn        1 MOL      0.164720
     74 H31         7.5820    3.8800    0.0450 h1        1 MOL      0.081117
     75 H32         7.1740    2.7610    1.2720 h1        1 MOL      0.081117
     76 N7          4.4960    4.0690    0.5000 n         1 MOL     -0.278825
     77 C25         3.3110    4.6510    1.1710 c3        1 MOL     -0.093485
     78 C26         2.4690    3.4810    1.6500 c         1 MOL      0.578917
     79 O14         2.6480    2.3190    1.2240 o         1 MOL     -0.503701
     80 C27         2.6430    5.6870    0.2130 c3        1 MOL      0.157193
     81 C28         3.6290    6.7570   -0.2070 c3        1 MOL     -0.302306
     82 C29         2.9480    7.9900   -0.8730 c         1 MOL      0.631864
     83 N8          3.0740    8.1130   -2.1830 n         1 MOL     -0.791867
     84 O15         2.2010    8.7350   -0.2920 o         1 MOL     -0.571445
     85 H33         4.0990    3.2520    0.0550 hn        1 MOL      0.233501
     86 H34         3.7070    5.1110    2.0760 h1        1 MOL      0.067033
     87 H35         1.7810    6.1060    0.7220 hc        1 MOL      0.017117
     88 H36         2.2930    5.1580   -0.6730 hc        1 MOL      0.017117
     89 H37         4.2550    6.3430   -0.9980 hc        1 MOL      0.087835
     90 H38         4.1800    7.0480    0.6810 hc        1 MOL      0.087835
     91 H39         3.8010    7.5350   -2.5910 hn        1 MOL      0.369549
     92 H40         2.4520    8.7660   -2.6430 hn        1 MOL      0.369549
     93 N9          1.4510    3.7360    2.4840 n         1 MOL     -0.585413
     94 C30         0.2550    2.8600    2.7860 c3        1 MOL      0.129963
     95 C31        -0.9530    3.2980    1.9230 c         1 MOL      0.434193
     96 O16        -1.2050    4.4940    1.7480 o         1 MOL     -0.575050
     97 C32        -0.1050    2.7440    4.2580 c3        1 MOL      0.423151
     98 C33         1.0690    2.1210    5.0170 c3        1 MOL     -0.343225
     99 C34        -0.4590    4.1090    4.9850 c3        1 MOL     -0.343225
    100 H41         1.2520    4.7050    2.6930 hn        1 MOL      0.296878
    101 H42         0.5520    1.8340    2.5580 h1        1 MOL      0.072181
    102 H43        -1.0050    2.1320    4.2180 hc        1 MOL     -0.081721
    103 H44         1.9350    2.7540    4.8470 hc        1 MOL      0.064900
    104 H45         0.8390    2.1210    6.0790 hc        1 MOL      0.064900
    105 H46         1.3750    1.1430    4.6430 hc        1 MOL      0.064900
    106 H47        -1.3770    4.5270    4.5900 hc        1 MOL      0.064900
    107 H48        -0.5520    3.8620    6.0460 hc        1 MOL      0.064900
    108 H49         0.2890    4.8800    4.8000 hc        1 MOL      0.064900
    109 N10        -1.6910    2.3830    1.3680 n         1 MOL     -0.284057
    110 C35        -2.8050    2.5890    0.5100 c3        1 MOL      0.320369
    111 C36        -4.1290    2.2420    1.2150 c         1 MOL      0.295032
    112 O17        -4.2340    1.4630    2.1650 o         1 MOL     -0.485738
    113 C37        -2.3720    1.6900   -0.6760 c3        1 MOL     -0.120986
    114 C38        -3.3420    1.8480   -1.8540 c         1 MOL      0.695343
    115 N11        -3.5810    3.0600   -2.3040 n         1 MOL     -0.818609
    116 O18        -3.8100    0.8830   -2.4700 o         1 MOL     -0.514680
    117 H50        -1.3750    1.4370    1.5570 hn        1 MOL      0.166624
    118 H51        -2.7800    3.6310    0.2090 h1        1 MOL     -0.015226
    119 H52        -2.2650    0.6190   -0.5120 hc        1 MOL      0.056465
    120 H53        -1.3620    1.9090   -1.0070 hc        1 MOL      0.056465
    121 H54        -3.3760    3.9390   -1.8480 hn        1 MOL      0.366768
    122 H55        -4.0480    2.9830   -3.1970 hn        1 MOL      0.366768
    123 N12        -5.2410    2.6530    0.5440 n         1 MOL     -0.224831
    124 C39        -6.5820    2.2310    0.7920 c3        1 MOL      0.086444
    125 C40        -6.7820    0.7510    0.6620 c         1 MOL      0.481300
    126 O19        -7.7340    0.2580    1.3190 o         1 MOL     -0.621124
    127 C41        -7.5110    3.2080   -0.0360 c3        1 MOL     -0.181439
    128 C42        -7.6760    2.8920   -1.5690 ca        1 MOL      0.182839
    129 C43        -8.5660    1.9000   -1.9760 ca        1 MOL     -0.309297
    130 C44        -6.7560    3.4540   -2.4590 ca        1 MOL     -0.309297
    131 C45        -8.4770    1.3570   -3.2630 ca        1 MOL     -0.165421
    132 C46        -6.6470    3.0070   -3.8060 ca        1 MOL     -0.165421
    133 C47        -7.5100    1.9250   -4.1800 ca        1 MOL      0.237369
    134 O20        -7.4110    1.4340   -5.4420 oh        1 MOL     -0.502009
    135 H56        -5.0220    3.1420   -0.3090 hn        1 MOL      0.089470
    136 H57        -6.8280    2.3720    1.8460 h1        1 MOL      0.078838
    137 H58        -7.2210    4.2530    0.0430 hc        1 MOL      0.043930
    138 H59        -8.5410    3.1390    0.3180 hc        1 MOL      0.043930
    139 H60        -9.1690    1.3440   -1.2800 ha        1 MOL      0.174291
    140 H61        -6.0860    4.1950   -2.0450 ha        1 MOL      0.174291
    141 H62        -9.0370    0.4780   -3.5510 ha        1 MOL      0.144449
    142 H63        -6.0170    3.5050   -4.5220 ha        1 MOL      0.144449
    143 H64        -7.9030    0.6320   -5.6430 ho        1 MOL      0.423152
    144 N13        -6.0480   -0.0260   -0.0760 n         1 MOL     -0.015805
    145 C48        -6.1340   -1.4780   -0.1420 c3        1 MOL     -0.168268
    146 C49        -5.2810   -2.1060    0.9330 c         1 MOL      0.381652
    147 O21        -5.2530   -3.3680    1.0300 o         1 MOL     -0.519287
    148 C50        -5.8210   -2.0170   -1.5200 c3        1 MOL     -0.006596
    149 C51        -6.8010   -1.5080   -2.5400 c3        1 MOL     -0.209952
    150 C52        -6.7530   -2.2890   -3.8850 c         1 MOL      0.717184
    151 O22        -7.6650   -3.1600   -4.0760 o         1 MOL     -0.740099
    152 O23        -5.9270   -1.9250   -4.7390 o         1 MOL     -0.740099
    153 H65        -5.2780    0.3600   -0.6000 hn        1 MOL      0.097168
    154 H66        -7.1160   -1.8400    0.1750 h1        1 MOL      0.139241
    155 H67        -5.8240   -3.1090   -1.4310 hc        1 MOL      0.075478
    156 H68        -4.7950   -1.7430   -1.7870 hc        1 MOL      0.075478
    157 H69        -6.6870   -0.4290   -2.6530 hc        1 MOL      0.029469
    158 H70        -7.8020   -1.5660   -2.1300 hc        1 MOL      0.029469
    159 N14        -4.5220   -1.3320    1.7980 n         1 MOL     -0.310717
    160 C53        -3.6200   -1.7950    2.8750 c3        1 MOL     -0.115310
    161 C54        -4.0520   -1.2500    4.2680 c         1 MOL      0.497107
    162 O24        -3.7190   -1.7610    5.3030 o         1 MOL     -0.551482
    163 C55        -2.1480   -1.5910    2.5250 c3        1 MOL      0.131763
    164 C56        -1.5770   -2.1600    1.2660 c3        1 MOL     -0.145039
    165 C57        -0.1440   -1.5850    0.9650 c         1 MOL      0.779926
    166 O25         0.1000   -0.4370    1.4060 o         1 MOL     -0.769324
    167 O26         0.7330   -2.1320    0.2410 o         1 MOL     -0.769324
    168 H71        -4.6520   -0.3320    1.7230 hn        1 MOL      0.172555
    169 H72        -3.7240   -2.8760    2.9570 h1        1 MOL      0.109830
    170 H73        -1.5670   -2.0500    3.3400 hc        1 MOL     -0.006752
    171 H74        -2.0530   -0.5110    2.5450 hc        1 MOL     -0.006752
    172 H75        -2.1750   -1.7590    0.4370 hc        1 MOL      0.066981
    173 H76        -1.5120   -3.2500    1.2760 hc        1 MOL      0.066981
    174 N15        -5.0380   -0.3710    4.2950 n         1 MOL     -0.177957
    175 C58        -5.7990   -0.0490    5.5150 c3        1 MOL     -0.223733
    176 H77        -6.7560    0.3940    5.2390 h1        1 MOL      0.086272
    177 H78        -5.9720   -0.9610    6.0870 h1        1 MOL      0.086272
    178 H79        -5.2330    0.6600    6.1200 h1        1 MOL      0.086272
    179 H80        -5.3370    0.1340    3.4690 hn        1 MOL      0.216129
    180 Ca1         2.4870   -0.2920    0.2100 Ca        1 MOL      1.708849
    181 O27         5.1440    0.0100    0.8990 oh        1 MOL     -0.819377
    182 H81         5.4250   -0.9050    0.9280 ho        1 MOL      0.400023
    183 H82         5.6850    0.4470    1.5550 ho        1 MOL      0.400023
    184 O28         0.7370    0.5500   -1.5410 oh        1 MOL     -0.819377
    185 O29         2.7240   -0.1070    2.7040 oh        1 MOL     -0.819377
    186 H83         0.8250   -0.1330   -2.2010 ho        1 MOL      0.400023
    187 H84         1.9530   -0.5940    3.0030 ho        1 MOL      0.400023
    188 H85         1.0910    1.3350   -1.9570 ho        1 MOL      0.400023
    189 H86         3.3660   -0.2400    3.3970 ho        1 MOL      0.400023
@<TRIPOS>BOND
     1    1    2 1   
     2    1    4 1   
     3    1    5 1   
     4    1    6 1   
     5    2    3 2   
     6    2    7 1   
     7    7    8 1   
     8    7   15 1   
     9    8    9 1   
    10    8   11 1   
    11    8   16 1   
    12    9   10 2   
    13    9   19 1   
    14   11   12 1   
    15   11   17 1   
    16   11   18 1   
    17   12   13 1   
    18   12   14 1   
    19   19   20 1   
    20   19   27 1   
    21   20   21 1   
    22   20   23 1   
    23   20   28 1   
    24   21   22 2   
    25   21   38 1   
    26   23   24 1   
    27   23   25 1   
    28   23   29 1   
    29   24   26 1   
    30   24   30 1   
    31   24   31 1   
    32   25   32 1   
    33   25   33 1   
    34   25   34 1   
    35   26   35 1   
    36   26   36 1   
    37   26   37 1   
    38   38   39 1   
    39   38   46 1   
    40   39   40 1   
    41   39   42 1   
    42   39   47 1   
    43   40   41 2   
    44   40   50 1   
    45   42   43 1   
    46   42   48 1   
    47   42   49 1   
    48   43   44 1   
    49   43   45 1   
    50   50   51 1   
    51   50   54 1   
    52   51   52 1   
    53   51   55 1   
    54   51   56 1   
    55   52   53 2   
    56   52   57 1   
    57   57   58 1   
    58   57   65 1   
    59   58   59 1   
    60   58   61 1   
    61   58   66 1   
    62   59   60 2   
    63   59   69 1   
    64   61   62 1   
    65   61   67 1   
    66   61   68 1   
    67   62   63 1   
    68   62   64 1   
    69   69   70 1   
    70   69   73 1   
    71   70   71 1   
    72   70   74 1   
    73   70   75 1   
    74   71   72 2   
    75   71   76 1   
    76   76   77 1   
    77   76   85 1   
    78   77   78 1   
    79   77   80 1   
    80   77   86 1   
    81   78   79 2   
    82   78   93 1   
    83   80   81 1   
    84   80   87 1   
    85   80   88 1   
    86   81   82 1   
    87   81   89 1   
    88   81   90 1   
    89   82   83 1   
    90   82   84 2   
    91   83   91 1   
    92   83   92 1   
    93   93   94 1   
    94   93  100 1   
    95   94   95 1   
    96   94   97 1   
    97   94  101 1   
    98   95   96 2   
    99   95  109 1   
   100   97   98 1   
   101   97   99 1   
   102   97  102 1   
   103   98  103 1   
   104   98  104 1   
   105   98  105 1   
   106   99  106 1   
   107   99  107 1   
   108   99  108 1   
   109  109  110 1   
   110  109  117 1   
   111  110  111 1   
   112  110  113 1   
   113  110  118 1   
   114  111  112 2   
   115  111  123 1   
   116  113  114 1   
   117  113  119 1   
   118  113  120 1   
   119  114  115 1   
   120  114  116 2   
   121  115  121 1   
   122  115  122 1   
   123  123  124 1   
   124  123  135 1   
   125  124  125 1   
   126  124  127 1   
   127  124  136 1   
   128  125  126 2   
   129  125  144 1   
   130  127  128 1   
   131  127  137 1   
   132  127  138 1   
   133  128  129 ar  
   134  128  130 ar  
   135  129  131 ar  
   136  129  139 1   
   137  130  132 ar  
   138  130  140 1   
   139  131  133 ar  
   140  131  141 1   
   141  132  133 ar  
   142  132  142 1   
   143  133  134 1   
   144  134  143 1   
   145  144  145 1   
   146  144  153 1   
   147  145  146 1   
   148  145  148 1   
   149  145  154 1   
   150  146  147 2   
   151  146  159 1   
   152  148  149 1   
   153  148  155 1   
   154  148  156 1   
   155  149  150 1   
   156  149  157 1   
   157  149  158 1   
   158  150  151 1   
   159  150  152 1   
   160  159  160 1   
   161  159  168 1   
   162  160  161 1   
   163  160  163 1   
   164  160  169 1   
   165  161  162 2   
   166  161  174 1   
   167  163  164 1   
   168  163  170 1   
   169  163  171 1   
   170  164  165 1   
   171  164  172 1   
   172  164  173 1   
   173  165  166 1   
   174  165  167 1   
   175  174  175 1   
   176  174  179 1   
   177  175  176 1   
   178  175  177 1   
   179  175  178 1   
   180  181  182 1   
   181  181  183 1   
   182  184  186 1   
   183  184  188 1   
   184  185  187 1   
   185  185  189 1   
@<TRIPOS>SUBSTRUCTURE
     1 MOL         1 TEMP              0 ****  ****    0 ROOT
