@<TRIPOS>MOLECULE
MOL
  179   176     1     0     0
SMALL
resp


@<TRIPOS>ATOM
      1 C1          2.2420    1.4700    5.9650 c3        1 MOL     -0.253929
      2 C2          1.7670    1.5600    4.5440 c         1 MOL      0.709885
      3 O1          2.5850    1.6310    3.5680 o         1 MOL     -0.663575
      4 H1          2.0750    0.4600    6.3400 hc        1 MOL      0.073045
      5 H2          3.3060    1.7020    6.0090 hc        1 MOL      0.073045
      6 H3          1.6890    2.1810    6.5790 hc        1 MOL      0.073045
      7 N1          0.4540    1.4990    4.3070 n         1 MOL     -0.557081
      8 C3         -0.2710    1.6800    3.0770 c3        1 MOL      0.130025
      9 C4         -0.1650    3.1510    2.6230 c         1 MOL      0.424215
     10 O2         -1.0250    4.0070    2.9250 o         1 MOL     -0.480811
     11 C5         -1.7450    1.1430    3.2300 c3        1 MOL     -0.148919
     12 C6         -2.5970    1.3260    2.0150 c         1 MOL      0.613703
     13 O3         -3.8060    1.2360    2.1330 o         1 MOL     -0.647760
     14 O4         -2.0750    1.5280    0.9250 o         1 MOL     -0.647760
     15 H4         -0.0710    1.4030    5.1580 hn        1 MOL      0.294974
     16 H5          0.1800    1.0080    2.3580 h1        1 MOL      0.022681
     17 H6         -2.3050    1.6460    4.0250 hc        1 MOL      0.055682
     18 H7         -1.6840    0.1050    3.5570 hc        1 MOL      0.055682
     19 N2          0.8380    3.3690    1.7710 n         1 MOL     -0.211733
     20 C7          1.2490    4.7910    1.3400 c3        1 MOL     -0.122736
     21 C8          0.1100    5.5280    0.5950 c         1 MOL      0.433779
     22 O5         -0.2340    6.6320    0.9600 o         1 MOL     -0.541209
     23 C9          2.4700    4.7370    0.4100 c3        1 MOL     -0.024329
     24 C10         3.0320    6.0550   -0.1450 c3        1 MOL     -0.239162
     25 C11         4.2420    5.8260   -1.0160 c3        1 MOL     -0.026167
     26 C12         4.7560    7.2000   -1.5750 c3        1 MOL     -0.009469
     27 N3          6.0440    7.0530   -2.2690 n4        1 MOL     -0.307958
     28 H8          1.5340    2.6580    1.6190 hn        1 MOL      0.250397
     29 H9          1.5200    5.3610    2.2290 h1        1 MOL      0.117211
     30 H10         2.2700    4.0630   -0.4230 hc        1 MOL      0.081369
     31 H11         3.2250    4.1470    0.9350 hc        1 MOL      0.081369
     32 H12         3.1940    6.7080    0.7080 hc        1 MOL      0.088611
     33 H13         2.2300    6.4660   -0.7630 hc        1 MOL      0.088611
     34 H14         4.0780    5.0670   -1.7800 hc        1 MOL      0.062053
     35 H15         5.0150    5.3940   -0.3870 hc        1 MOL      0.062053
     36 H16         5.0290    7.8280   -0.7210 hx        1 MOL      0.106011
     37 H17         4.0490    7.7040   -2.2270 hx        1 MOL      0.106011
     38 H18         6.1760    7.9000   -2.7970 hn        1 MOL      0.315668
     39 H19         6.7860    6.7620   -1.6510 hn        1 MOL      0.315668
     40 H20         6.0210    6.3410   -2.9770 hn        1 MOL      0.315668
     41 N4         -0.6550    4.8660   -0.2380 n         1 MOL     -0.187062
     42 C13        -1.6020    5.5320   -1.1710 c3        1 MOL      0.081302
     43 C14        -3.0790    5.4060   -0.6350 c         1 MOL      0.360231
     44 O6         -3.9600    6.1490   -0.9870 o         1 MOL     -0.534212
     45 C15        -1.3800    4.9730   -2.6710 c3        1 MOL     -0.308561
     46 C16        -1.5970    3.4220   -2.8040 c         1 MOL      0.865655
     47 O7         -1.1620    2.8170   -3.7980 o         1 MOL     -0.756440
     48 O8         -2.0960    2.7880   -1.8650 o         1 MOL     -0.756440
     49 H21        -0.5050    3.8630   -0.3130 hn        1 MOL      0.141595
     50 H22        -1.3840    6.6020   -1.2230 h1        1 MOL      0.084521
     51 H23        -0.3890    5.2460   -3.0440 hc        1 MOL      0.068191
     52 H24        -1.9850    5.4560   -3.4420 hc        1 MOL      0.068191
     53 N5         -3.3020    4.4780    0.2720 n         1 MOL      0.044739
     54 C17        -4.4950    4.2860    1.0510 c3        1 MOL     -0.177261
     55 C18        -5.5630    3.5440    0.2680 c         1 MOL      0.550580
     56 O9         -6.7760    3.8950    0.3390 o         1 MOL     -0.588584
     57 H25        -2.4810    3.9660    0.5660 hn        1 MOL      0.077280
     58 H26        -4.9400    5.1940    1.4470 h1        1 MOL      0.094771
     59 H27        -4.2420    3.6660    1.9150 h1        1 MOL      0.094771
     60 N6         -5.1680    2.5360   -0.5480 n         1 MOL     -0.177992
     61 C19        -6.1640    1.7700   -1.2660 c3        1 MOL     -0.316398
     62 C20        -6.4510    0.3770   -0.5460 c         1 MOL      0.379170
     63 O10        -7.0260   -0.5600   -1.0870 o         1 MOL     -0.455757
     64 C21        -5.7170    1.6300   -2.7590 c3        1 MOL      0.034630
     65 C22        -4.4450    0.8020   -2.8820 c         1 MOL      0.579053
     66 N7         -4.2650    0.2710   -4.0720 n         1 MOL     -0.804792
     67 O11        -3.7040    0.6340   -1.9420 o         1 MOL     -0.511865
     68 H28        -4.1850    2.2950   -0.5240 hn        1 MOL      0.135170
     69 H29        -7.1180    2.2850   -1.3990 h1        1 MOL      0.210434
     70 H30        -5.5750    2.6020   -3.2260 hc        1 MOL      0.042871
     71 H31        -6.5560    1.2430   -3.3310 hc        1 MOL      0.042871
     72 H32        -4.9690    0.3480   -4.7990 hn        1 MOL      0.379687
     73 H33        -3.4710   -0.3400   -4.0790 hn        1 MOL      0.379687
     74 N8         -6.2260    0.2700    0.8110 n         1 MOL     -0.118678
     75 C23        -6.6510   -0.8330    1.6170 c3        1 MOL     -0.374350
     76 C24        -5.6870   -1.9950    1.6930 c         1 MOL      0.714702
     77 O12        -6.0170   -3.0290    2.3120 o         1 MOL     -0.587201
     78 H34        -5.6330    0.9970    1.1960 hn        1 MOL      0.227590
     79 H35        -7.6590   -1.1490    1.3370 h1        1 MOL      0.155445
     80 H36        -6.6990   -0.4150    2.6270 h1        1 MOL      0.155445
     81 N9         -4.4320   -1.9960    1.2050 n         1 MOL     -0.471779
     82 C25        -3.4320   -3.0920    1.1330 c3        1 MOL      0.278854
     83 C26        -1.9990   -2.5600    1.2390 c         1 MOL      0.447886
     84 O13        -1.6740   -1.6280    0.5520 o         1 MOL     -0.672878
     85 C27        -3.4190   -3.8400   -0.2010 c3        1 MOL      0.030390
     86 C28        -4.5780   -4.7620   -0.4140 ca        1 MOL     -0.172374
     87 C29        -5.7400   -4.1500   -1.0390 ca        1 MOL      0.041729
     88 C30        -4.5000   -6.0940   -0.3610 ca        1 MOL      0.041729
     89 C31        -6.7930   -5.0140   -1.4700 ca        1 MOL     -0.418320
     90 C32        -5.4810   -6.9930   -0.7490 ca        1 MOL     -0.418320
     91 C33        -6.6520   -6.3850   -1.2210 ca        1 MOL      0.479596
     92 O14        -7.7400   -7.1590   -1.4770 oh        1 MOL     -0.495841
     93 H37        -4.0680   -1.2150    0.6690 hn        1 MOL      0.230729
     94 H38        -3.6110   -3.7720    1.9710 h1        1 MOL      0.004494
     95 H39        -2.4980   -4.4310   -0.1800 hc        1 MOL      0.020590
     96 H40        -3.4210   -3.1440   -1.0340 hc        1 MOL      0.020590
     97 H41        -5.8210   -3.0780   -0.9080 ha        1 MOL      0.056679
     98 H42        -3.5280   -6.5370   -0.1780 ha        1 MOL      0.056679
     99 H43        -7.6620   -4.5300   -1.8850 ha        1 MOL      0.188071
    100 H44        -5.3320   -8.0630   -0.6900 ha        1 MOL      0.188071
    101 H45        -7.6200   -8.0290   -1.0880 ho        1 MOL      0.344780
    102 N10        -1.0620   -3.3430    1.8240 n         1 MOL     -0.450123
    103 C34         0.3630   -3.1560    1.6730 c3        1 MOL      0.046222
    104 C35         1.0030   -3.9060    0.4790 c         1 MOL      0.593465
    105 O15         0.9550   -5.1710    0.4790 o         1 MOL     -0.585337
    106 C36         1.0910   -3.2710    3.0340 c3        1 MOL      0.023530
    107 C37         0.2380   -2.8220    4.3180 c3        1 MOL      0.267978
    108 C38         2.3570   -2.3690    2.9040 c3        1 MOL     -0.438373
    109 C39         0.8170   -3.4060    5.6000 c3        1 MOL     -0.484740
    110 H46        -1.3940   -4.1860    2.2580 hn        1 MOL      0.258735
    111 H47         0.4460   -2.0950    1.4500 h1        1 MOL      0.173769
    112 H48         1.3690   -4.3260    3.0920 hc        1 MOL      0.014705
    113 H49        -0.8490   -2.9740    4.3310 hc        1 MOL     -0.028878
    114 H50         0.1500   -1.7360    4.3640 hc        1 MOL     -0.028878
    115 H51         2.8390   -2.5200    1.9360 hc        1 MOL      0.100085
    116 H52         2.0530   -1.3270    2.9580 hc        1 MOL      0.100085
    117 H53         2.9290   -2.5420    3.8090 hc        1 MOL      0.100085
    118 H54         0.8050   -4.4910    5.5140 hc        1 MOL      0.120488
    119 H55         1.8510   -3.0710    5.5600 hc        1 MOL      0.120488
    120 H56         0.1600   -3.0360    6.3850 hc        1 MOL      0.120488
    121 N11         1.5550   -3.2000   -0.4880 n         1 MOL     -0.342337
    122 C40         2.4870   -3.9060   -1.4580 c3        1 MOL      0.033625
    123 C41         3.8510   -3.8640   -0.9080 c         1 MOL      0.358087
    124 O16         4.2070   -3.1320    0.0080 o         1 MOL     -0.282268
    125 C42         2.3220   -3.2810   -2.8550 c3        1 MOL     -0.151517
    126 O17         2.8790   -2.0180   -2.7220 oh        1 MOL     -0.469197
    127 H57         1.6760   -2.1980   -0.3670 hn        1 MOL      0.231854
    128 H58         2.1340   -4.9290   -1.5460 h1        1 MOL      0.069052
    129 H59         1.2490   -3.2200   -3.0430 h1        1 MOL      0.121378
    130 H60         2.9070   -3.8340   -3.5850 h1        1 MOL      0.121378
    131 H61         2.2410   -1.3430   -2.4660 ho        1 MOL      0.357978
    132 N12         4.7230   -4.7790   -1.3590 n         1 MOL     -0.426307
    133 C43         6.1750   -4.7420   -0.9890 c3        1 MOL      0.082469
    134 C44         6.9260   -3.4710   -1.3280 c         1 MOL      0.508337
    135 O18         7.9080   -3.1270   -0.5970 o         1 MOL     -0.532992
    136 C45         6.8540   -6.0190   -1.5210 c3        1 MOL     -0.520312
    137 H62         4.3950   -5.2960   -2.1630 hn        1 MOL      0.295458
    138 H63         6.1520   -4.8430    0.0960 h1        1 MOL      0.122387
    139 H64         6.5650   -6.0560   -2.5640 hc        1 MOL      0.162835
    140 H65         7.9120   -5.8230   -1.4060 hc        1 MOL      0.162835
    141 H66         6.6410   -6.8810   -0.8790 hc        1 MOL      0.162835
    142 N13         6.5550   -2.6930   -2.3730 n         1 MOL     -0.437971
    143 C46         7.2780   -1.4240   -2.5930 c3        1 MOL      0.072311
    144 C47         6.9920   -0.3150   -1.5330 c         1 MOL      0.385569
    145 O19         7.7390    0.6110   -1.3690 o         1 MOL     -0.510159
    146 C48         6.9170   -0.9200   -3.9530 c3        1 MOL     -0.271172
    147 H67         5.6780   -2.8850   -2.8220 hn        1 MOL      0.320902
    148 H68         8.3380   -1.6770   -2.5320 h1        1 MOL      0.118530
    149 H69         5.8320   -0.8560   -4.0240 hc        1 MOL      0.075803
    150 H70         7.4000    0.0340   -4.1570 hc        1 MOL      0.075803
    151 H71         7.2110   -1.6690   -4.6900 hc        1 MOL      0.075803
    152 N14         5.8620   -0.4870   -0.7800 n         1 MOL      0.020081
    153 C49         5.4110    0.4180    0.2790 c3        1 MOL     -0.097758
    154 C50         6.1230    0.0040    1.6020 c         1 MOL      0.444866
    155 O20         6.7320    0.7650    2.3660 o         1 MOL     -0.530437
    156 C51         3.9200    0.2890    0.3940 c3        1 MOL     -0.171658
    157 C52         3.1020    0.8340   -0.8180 c3        1 MOL     -0.002168
    158 C53         1.5960    0.7360   -0.5920 c         1 MOL      0.684518
    159 O21         1.0420   -0.3790   -0.6620 o         1 MOL     -0.742102
    160 O22         0.8560    1.7070   -0.5350 o         1 MOL     -0.742102
    161 H72         5.3270   -1.3280   -0.9500 hn        1 MOL      0.024092
    162 H73         5.6530    1.4630    0.0710 h1        1 MOL      0.069159
    163 H74         3.5700    0.9340    1.2010 hc        1 MOL      0.106023
    164 H75         3.7020   -0.7820    0.4460 hc        1 MOL      0.106023
    165 H76         3.3200    0.2390   -1.7080 hc        1 MOL     -0.030600
    166 H77         3.3760    1.8440   -1.1200 hc        1 MOL     -0.030600
    167 N15         6.2250   -1.3110    1.8240 n         1 MOL     -0.060618
    168 C54         6.9040   -1.9940    2.9120 c3        1 MOL     -0.290111
    169 H78         6.3120   -2.8530    3.2270 h1        1 MOL      0.112804
    170 H79         7.8830   -2.3340    2.5740 h1        1 MOL      0.112804
    171 H80         7.0270   -1.3100    3.7510 h1        1 MOL      0.112804
    172 H81         5.7380   -1.9630    1.2220 hn        1 MOL      0.082287
    173 Ca1        -1.2340    0.3600   -1.2410 Ca        1 MOL      1.753454
    174 O23        -1.7910   -1.9280   -2.6890 oh        1 MOL     -0.841798
    175 H82        -1.6050   -2.8430   -2.4930 ho        1 MOL      0.398959
    176 H83        -2.1230   -1.9270   -3.5860 ho        1 MOL      0.398959
    177 O24        -0.4030    0.3780   -3.7450 oh        1 MOL     -0.841798
    178 H84        -0.1550   -0.0880   -4.5490 ho        1 MOL      0.398959
    179 H85        -0.6770    1.2430   -4.0420 ho        1 MOL      0.398959
@<TRIPOS>BOND
     1    1    2 1   
     2    1    4 1   
     3    1    5 1   
     4    1    6 1   
     5    2    3 2   
     6    2    7 1   
     7    7    8 1   
     8    7   15 1   
     9    8    9 1   
    10    8   11 1   
    11    8   16 1   
    12    9   10 2   
    13    9   19 1   
    14   11   12 1   
    15   11   17 1   
    16   11   18 1   
    17   12   13 1   
    18   12   14 1   
    19   19   20 1   
    20   19   28 1   
    21   20   21 1   
    22   20   23 1   
    23   20   29 1   
    24   21   22 2   
    25   21   41 1   
    26   23   24 1   
    27   23   30 1   
    28   23   31 1   
    29   24   25 1   
    30   24   32 1   
    31   24   33 1   
    32   25   26 1   
    33   25   34 1   
    34   25   35 1   
    35   26   27 1   
    36   26   36 1   
    37   26   37 1   
    38   27   38 1   
    39   27   39 1   
    40   27   40 1   
    41   41   42 1   
    42   41   49 1   
    43   42   43 1   
    44   42   45 1   
    45   42   50 1   
    46   43   44 2   
    47   43   53 1   
    48   45   46 1   
    49   45   51 1   
    50   45   52 1   
    51   46   47 1   
    52   46   48 1   
    53   53   54 1   
    54   53   57 1   
    55   54   55 1   
    56   54   58 1   
    57   54   59 1   
    58   55   56 2   
    59   55   60 1   
    60   60   61 1   
    61   60   68 1   
    62   61   62 1   
    63   61   64 1   
    64   61   69 1   
    65   62   63 2   
    66   62   74 1   
    67   64   65 1   
    68   64   70 1   
    69   64   71 1   
    70   65   66 1   
    71   65   67 2   
    72   66   72 1   
    73   66   73 1   
    74   74   75 1   
    75   74   78 1   
    76   75   76 1   
    77   75   79 1   
    78   75   80 1   
    79   76   77 2   
    80   76   81 1   
    81   81   82 1   
    82   81   93 1   
    83   82   83 1   
    84   82   85 1   
    85   82   94 1   
    86   83   84 2   
    87   83  102 1   
    88   85   86 1   
    89   85   95 1   
    90   85   96 1   
    91   86   87 ar  
    92   86   88 ar  
    93   87   89 ar  
    94   87   97 1   
    95   88   90 ar  
    96   88   98 1   
    97   89   91 ar  
    98   89   99 1   
    99   90   91 ar  
   100   90  100 1   
   101   91   92 1   
   102   92  101 1   
   103  102  103 1   
   104  102  110 1   
   105  103  104 1   
   106  103  106 1   
   107  103  111 1   
   108  104  105 2   
   109  104  121 1   
   110  106  107 1   
   111  106  108 1   
   112  106  112 1   
   113  107  109 1   
   114  107  113 1   
   115  107  114 1   
   116  108  115 1   
   117  108  116 1   
   118  108  117 1   
   119  109  118 1   
   120  109  119 1   
   121  109  120 1   
   122  121  122 1   
   123  121  127 1   
   124  122  123 1   
   125  122  125 1   
   126  122  128 1   
   127  123  124 2   
   128  123  132 1   
   129  125  126 1   
   130  125  129 1   
   131  125  130 1   
   132  126  131 1   
   133  132  133 1   
   134  132  137 1   
   135  133  134 1   
   136  133  136 1   
   137  133  138 1   
   138  134  135 2   
   139  134  142 1   
   140  136  139 1   
   141  136  140 1   
   142  136  141 1   
   143  142  143 1   
   144  142  147 1   
   145  143  144 1   
   146  143  146 1   
   147  143  148 1   
   148  144  145 2   
   149  144  152 1   
   150  146  149 1   
   151  146  150 1   
   152  146  151 1   
   153  152  153 1   
   154  152  161 1   
   155  153  154 1   
   156  153  156 1   
   157  153  162 1   
   158  154  155 2   
   159  154  167 1   
   160  156  157 1   
   161  156  163 1   
   162  156  164 1   
   163  157  158 1   
   164  157  165 1   
   165  157  166 1   
   166  158  159 1   
   167  158  160 1   
   168  167  168 1   
   169  167  172 1   
   170  168  169 1   
   171  168  170 1   
   172  168  171 1   
   173  174  175 1   
   174  174  176 1   
   175  177  178 1   
   176  177  179 1   
@<TRIPOS>SUBSTRUCTURE
     1 MOL         1 TEMP              0 ****  ****    0 ROOT
