@<TRIPOS>MOLECULE
MOL
  175   173     1     0     0
SMALL
resp


@<TRIPOS>ATOM
      1 C1          0.7170    3.9140    5.6050 c3        1 MOL     -0.302825
      2 C2          0.0200    3.7960    4.1970 c         1 MOL      0.681299
      3 O1          0.6490    3.7920    3.1520 o         1 MOL     -0.542761
      4 H1          1.7990    3.9010    5.4770 hc        1 MOL      0.075962
      5 H2          0.4190    4.8470    6.0810 hc        1 MOL      0.075962
      6 H3          0.4160    3.0730    6.2310 hc        1 MOL      0.075962
      7 N1         -1.2850    3.7540    4.0990 n         1 MOL     -0.655682
      8 C3         -1.9620    3.6060    2.8460 c3        1 MOL      0.386706
      9 C4         -1.8130    4.7410    1.8390 c         1 MOL      0.539360
     10 O2         -2.0160    5.8770    2.2830 o         1 MOL     -0.607200
     11 C5         -3.4360    3.2990    3.0860 c3        1 MOL     -0.414181
     12 C6         -4.2020    2.7620    1.8590 c         1 MOL      0.851652
     13 O3         -5.4200    2.8840    1.8050 o         1 MOL     -0.701878
     14 O4         -3.4740    2.2430    0.9940 o         1 MOL     -0.701878
     15 H4         -1.8170    3.6040    4.9560 hn        1 MOL      0.305017
     16 H5         -1.5320    2.7260    2.3870 h1        1 MOL     -0.025810
     17 H6         -3.9090    4.1920    3.4790 hc        1 MOL      0.065465
     18 H7         -3.4990    2.4840    3.8090 hc        1 MOL      0.065465
     19 N2         -1.6900    4.5050    0.5370 n         1 MOL     -0.377360
     20 C7         -1.7930    5.4410   -0.6180 c3        1 MOL      0.140065
     21 C8         -2.8390    5.1230   -1.7090 c         1 MOL      0.612371
     22 O5         -2.9540    5.9510   -2.5670 o         1 MOL     -0.581318
     23 C9         -0.4180    5.6800   -1.2100 c3        1 MOL     -0.192807
     24 H8         -1.4610    3.5410    0.3690 hn        1 MOL      0.291076
     25 H9         -2.1390    6.4110   -0.2550 h1        1 MOL      0.034150
     26 H10        -0.2910    6.4490   -1.9700 hc        1 MOL      0.048163
     27 H11         0.3010    5.8410   -0.4080 hc        1 MOL      0.048163
     28 H12        -0.0690    4.7500   -1.6740 hc        1 MOL      0.048163
     29 N3         -3.7440    4.1320   -1.6170 n         1 MOL     -0.441109
     30 C10        -4.5950    3.6420   -2.7030 c3        1 MOL      0.055783
     31 C11        -5.8550    2.8000   -2.2780 c         1 MOL      0.405104
     32 O6         -6.7860    2.5890   -3.0770 o         1 MOL     -0.561337
     33 C12        -3.7860    2.7090   -3.6180 c3        1 MOL     -0.081408
     34 C13        -3.0460    1.5340   -3.0260 c         1 MOL      0.764089
     35 O7         -2.0280    1.0500   -3.5750 o         1 MOL     -0.718276
     36 O8         -3.5260    1.0770   -1.9620 o         1 MOL     -0.718276
     37 H13        -3.7960    3.6170   -0.7390 hn        1 MOL      0.159561
     38 H14        -4.9940    4.3420   -3.4260 h1        1 MOL      0.073084
     39 H15        -2.9960    3.3320   -4.0430 hc        1 MOL      0.010911
     40 H16        -4.3910    2.2950   -4.4310 hc        1 MOL      0.010911
     41 N4         -5.9890    2.3400   -1.0120 n         1 MOL     -0.157983
     42 C14        -7.0810    1.6010   -0.5050 c3        1 MOL     -0.259358
     43 C15        -7.0500    0.1560   -1.0540 c         1 MOL      0.612030
     44 O9         -8.0670   -0.4570   -0.9230 o         1 MOL     -0.636898
     45 H17        -5.3560    2.6990   -0.3100 hn        1 MOL      0.209030
     46 H18        -8.0480    2.0070   -0.8180 h1        1 MOL      0.116639
     47 H19        -7.0310    1.6340    0.5780 h1        1 MOL      0.116639
     48 N5         -6.0280   -0.3320   -1.7330 n         1 MOL     -0.251119
     49 C16        -6.1340   -1.7380   -2.2860 c3        1 MOL      0.017408
     50 C17        -6.1840   -2.9380   -1.3530 c         1 MOL      0.351159
     51 O10        -6.1760   -4.1060   -1.7630 o         1 MOL     -0.505203
     52 C18        -5.0370   -1.8960   -3.4030 c3        1 MOL     -0.240979
     53 C19        -3.6680   -2.1360   -2.7500 c         1 MOL      0.676647
     54 N6         -2.7070   -2.6670   -3.4190 n         1 MOL     -0.626660
     55 O11        -3.4150   -1.9120   -1.5790 o         1 MOL     -0.658797
     56 H20        -5.1640    0.1630   -1.9240 hn        1 MOL      0.161083
     57 H21        -7.0820   -1.7510   -2.8250 h1        1 MOL      0.100594
     58 H22        -4.9490   -1.0680   -4.1150 hc        1 MOL      0.082102
     59 H23        -5.2720   -2.7670   -4.0140 hc        1 MOL      0.082102
     60 H24        -2.7330   -2.7370   -4.4340 hn        1 MOL      0.313314
     61 H25        -1.8010   -2.6210   -2.9870 hn        1 MOL      0.313314
     62 N7         -6.2910   -2.7160   -0.0300 n         1 MOL     -0.087828
     63 C20        -6.4780   -3.6220    1.0830 c3        1 MOL     -0.271477
     64 C21        -5.2190   -4.2960    1.5960 c         1 MOL      0.580512
     65 O12        -5.2780   -5.1590    2.4400 o         1 MOL     -0.603479
     66 H26        -6.3630   -1.7180    0.1020 hn        1 MOL      0.178081
     67 H27        -7.2140   -4.3930    0.8300 h1        1 MOL      0.111100
     68 H28        -6.8100   -3.0190    1.9230 h1        1 MOL      0.111100
     69 N8         -4.0780   -3.9640    1.0340 n         1 MOL     -0.245180
     70 C22        -2.8080   -4.6320    1.3690 c3        1 MOL     -0.221944
     71 C23        -1.7030   -3.5690    1.4990 c         1 MOL      0.458439
     72 O13        -1.9070   -2.4380    1.1410 o         1 MOL     -0.501365
     73 C24        -2.3300   -5.5740    0.2290 c3        1 MOL      0.628437
     74 C25        -3.0790   -6.8570    0.2220 c3        1 MOL     -0.460366
     75 O14        -2.4680   -4.9520   -1.0700 oh        1 MOL     -0.636900
     76 H29        -4.1100   -3.2180    0.3510 hn        1 MOL      0.306005
     77 H30        -2.9090   -5.1300    2.3320 h1        1 MOL      0.105328
     78 H31        -1.2720   -5.7820    0.3460 h1        1 MOL     -0.080811
     79 H32        -1.6260   -4.5590   -1.3000 ho        1 MOL      0.376911
     80 H33        -4.1270   -6.6540    0.4190 hc        1 MOL      0.105982
     81 H34        -2.9270   -7.3400   -0.7420 hc        1 MOL      0.105982
     82 H35        -2.6750   -7.5070    0.9940 hc        1 MOL      0.105982
     83 N9         -0.5740   -3.8310    2.1650 n         1 MOL     -0.287672
     84 C26         0.6590   -3.0410    2.0900 c3        1 MOL     -0.104714
     85 C27         1.3440   -3.3670    0.7450 c         1 MOL      0.495899
     86 O15         1.5750   -4.5540    0.4270 o         1 MOL     -0.585517
     87 C28         1.6030   -3.1750    3.2500 c3        1 MOL      0.269434
     88 C29         0.8420   -2.7970    4.5260 c3        1 MOL     -0.096766
     89 C30         2.7660   -2.2200    3.1680 c3        1 MOL     -0.127002
     90 C31         1.3350   -3.4780    5.8350 c3        1 MOL     -0.075049
     91 H36        -0.6480   -4.7510    2.5740 hn        1 MOL      0.203277
     92 H37         0.4430   -1.9740    2.0810 h1        1 MOL      0.099752
     93 H38         2.0510   -4.1690    3.2770 hc        1 MOL     -0.041009
     94 H39        -0.2310   -2.9340    4.4210 hc        1 MOL      0.017882
     95 H40         0.9440   -1.7350    4.7280 hc        1 MOL      0.017882
     96 H41         3.4280   -2.5240    2.3670 hc        1 MOL      0.014698
     97 H42         2.4230   -1.2020    2.9830 hc        1 MOL      0.014698
     98 H43         3.3490   -2.3520    4.0770 hc        1 MOL      0.014698
     99 H44         2.4090   -3.3560    5.9660 hc        1 MOL      0.014086
    100 H45         0.9360   -3.0850    6.7800 hc        1 MOL      0.014086
    101 H46         1.1280   -4.5500    5.8190 hc        1 MOL      0.014086
    102 N10         1.7180   -2.3080    0.0620 n         1 MOL     -0.214159
    103 C32         2.5430   -2.1450   -1.1790 c3        1 MOL      0.043452
    104 C33         3.9460   -1.6060   -0.9240 c         1 MOL      0.438660
    105 O16         4.1630   -1.0120    0.1020 o         1 MOL     -0.269601
    106 C34         1.7630   -1.1840   -2.1720 c3        1 MOL     -0.361420
    107 C35         0.3740   -1.6290   -2.4150 c         1 MOL      0.918422
    108 O17         0.1670   -2.4480   -3.3770 o         1 MOL     -0.734823
    109 O18        -0.4960   -1.2290   -1.6460 o         1 MOL     -0.734823
    110 H47         1.4890   -1.4360    0.4970 hn        1 MOL      0.146125
    111 H48         2.6400   -3.0570   -1.7570 h1        1 MOL      0.076102
    112 H49         2.2470   -1.1310   -3.1480 hc        1 MOL      0.077395
    113 H50         1.7150   -0.1540   -1.8180 hc        1 MOL      0.077395
    114 N11         4.9550   -1.9750   -1.7880 n         1 MOL     -0.751107
    115 C36         6.3570   -1.5330   -1.5040 c3        1 MOL      0.527055
    116 C37         6.5090   -0.0290   -1.1900 c         1 MOL      0.186457
    117 O19         7.2370    0.1950   -0.1820 o         1 MOL     -0.447270
    118 C38         7.3820   -1.9660   -2.5910 c3        1 MOL     -0.397199
    119 C39         8.7680   -1.6500   -2.0250 ca        1 MOL      0.204470
    120 C40         9.7030   -0.8520   -2.7850 ca        1 MOL     -0.223772
    121 C41         9.3240   -2.3400   -0.8950 ca        1 MOL     -0.223772
    122 C42        11.0380   -0.6330   -2.4460 ca        1 MOL     -0.071665
    123 C43        10.6400   -2.2200   -0.5860 ca        1 MOL     -0.071665
    124 C44        11.4610   -1.3400   -1.3150 ca        1 MOL     -0.120655
    125 H51         4.7830   -2.4620   -2.6540 hn        1 MOL      0.376500
    126 H52         6.6390   -2.1010   -0.6110 h1        1 MOL      0.041437
    127 H53         7.2430   -1.4720   -3.5580 hc        1 MOL      0.107947
    128 H54         7.3740   -3.0400   -2.7740 hc        1 MOL      0.107947
    129 H55         9.3230   -0.3100   -3.6400 ha        1 MOL      0.122983
    130 H56         8.7990   -3.0610   -0.2810 ha        1 MOL      0.122983
    131 H57        11.6830    0.0130   -3.0190 ha        1 MOL      0.106936
    132 H58        11.1560   -2.9600    0.0060 ha        1 MOL      0.106936
    133 H59        12.5240   -1.3600   -1.1270 ha        1 MOL      0.077569
    134 N12         5.9760    0.9940   -1.9060 n         1 MOL     -0.031875
    135 C45         6.1090    2.4110   -1.5490 c3        1 MOL      0.000055
    136 C46         5.5010    2.8600   -0.2210 c         1 MOL      0.261643
    137 O20         5.8090    3.9300    0.3510 o         1 MOL     -0.511291
    138 C47         5.5840    3.2200   -2.7460 c3        1 MOL      0.007705
    139 C48         5.5460    2.1440   -3.8760 c3        1 MOL     -0.059397
    140 C49         5.2150    0.9150   -3.1330 c3        1 MOL     -0.144864
    141 H60         7.1910    2.5610   -1.4830 h1        1 MOL      0.070531
    142 H61         4.5650    3.5150   -2.4660 hc        1 MOL      0.033553
    143 H62         6.1250    4.1420   -2.9700 hc        1 MOL      0.033553
    144 H63         4.7460    2.3490   -4.5900 hc        1 MOL      0.032386
    145 H64         6.4880    2.1750   -4.4160 hc        1 MOL      0.032386
    146 H65         4.1320    0.9870   -3.0260 h1        1 MOL      0.091689
    147 H66         5.4520    0.0460   -3.7550 h1        1 MOL      0.091689
    148 N13         4.6790    1.9940    0.2760 n         1 MOL      0.048804
    149 C50         4.0890    2.0740    1.6450 c3        1 MOL     -0.108699
    150 C51         5.0340    1.3720    2.6400 c         1 MOL      0.439386
    151 O21         5.3420    1.9150    3.7320 o         1 MOL     -0.558465
    152 C52         2.7220    1.5440    1.7140 c3        1 MOL      0.055321
    153 C53         1.7370    2.1670    0.7220 c3        1 MOL     -0.208433
    154 C54         0.4150    1.4440    0.7600 c         1 MOL      0.830012
    155 O22        -0.5420    1.9550    0.1410 o         1 MOL     -0.790044
    156 O23         0.2390    0.3300    1.3560 o         1 MOL     -0.790044
    157 H67         4.3780    1.2630   -0.3580 hn        1 MOL      0.101903
    158 H68         4.0830    3.1450    1.8550 h1        1 MOL      0.101553
    159 H69         2.2970    1.7800    2.6930 hc        1 MOL      0.020608
    160 H70         2.8140    0.4820    1.4980 hc        1 MOL      0.020608
    161 H71         2.1520    1.9990   -0.2750 hc        1 MOL      0.060040
    162 H72         1.5000    3.1940    0.9920 hc        1 MOL      0.060040
    163 N14         5.5230    0.1820    2.2900 n         1 MOL     -0.107811
    164 C55         6.5390   -0.4590    3.1700 c3        1 MOL     -0.146168
    165 H73         7.4750   -0.5700    2.6210 h1        1 MOL      0.067895
    166 H74         6.7060    0.1650    4.0480 h1        1 MOL      0.067895
    167 H75         6.1830   -1.4400    3.4820 h1        1 MOL      0.067895
    168 H76         5.3000   -0.1580    1.3620 hn        1 MOL      0.048919
    169 Ca1        -2.3170    0.0290    0.0480 Ca        1 MOL      1.726814
    170 O24        -2.0110    0.1970    2.8620 oh        1 MOL     -0.957336
    171 H77        -1.0960    0.1820    2.5820 ho        1 MOL      0.450344
    172 H78        -1.9710    0.3970    3.8000 ho        1 MOL      0.450344
    173 O25        -4.4920   -0.6090    1.5870 oh        1 MOL     -0.957336
    174 H79        -5.3750   -0.5750    1.9490 ho        1 MOL      0.450344
    175 H80        -3.9110   -0.5160    2.3410 ho        1 MOL      0.450344
@<TRIPOS>BOND
     1    1    2 1   
     2    1    4 1   
     3    1    5 1   
     4    1    6 1   
     5    2    3 2   
     6    2    7 1   
     7    7    8 1   
     8    7   15 1   
     9    8    9 1   
    10    8   11 1   
    11    8   16 1   
    12    9   10 2   
    13    9   19 1   
    14   11   12 1   
    15   11   17 1   
    16   11   18 1   
    17   12   13 1   
    18   12   14 1   
    19   19   20 1   
    20   19   24 1   
    21   20   21 1   
    22   20   23 1   
    23   20   25 1   
    24   21   22 2   
    25   21   29 1   
    26   23   26 1   
    27   23   27 1   
    28   23   28 1   
    29   29   30 1   
    30   29   37 1   
    31   30   31 1   
    32   30   33 1   
    33   30   38 1   
    34   31   32 2   
    35   31   41 1   
    36   33   34 1   
    37   33   39 1   
    38   33   40 1   
    39   34   35 1   
    40   34   36 1   
    41   41   42 1   
    42   41   45 1   
    43   42   43 1   
    44   42   46 1   
    45   42   47 1   
    46   43   44 2   
    47   43   48 1   
    48   48   49 1   
    49   48   56 1   
    50   49   50 1   
    51   49   52 1   
    52   49   57 1   
    53   50   51 2   
    54   50   62 1   
    55   52   53 1   
    56   52   58 1   
    57   52   59 1   
    58   53   54 1   
    59   53   55 2   
    60   54   60 1   
    61   54   61 1   
    62   62   63 1   
    63   62   66 1   
    64   63   64 1   
    65   63   67 1   
    66   63   68 1   
    67   64   65 2   
    68   64   69 1   
    69   69   70 1   
    70   69   76 1   
    71   70   71 1   
    72   70   73 1   
    73   70   77 1   
    74   71   72 2   
    75   71   83 1   
    76   73   74 1   
    77   73   75 1   
    78   73   78 1   
    79   74   80 1   
    80   74   81 1   
    81   74   82 1   
    82   75   79 1   
    83   83   84 1   
    84   83   91 1   
    85   84   85 1   
    86   84   87 1   
    87   84   92 1   
    88   85   86 2   
    89   85  102 1   
    90   87   88 1   
    91   87   89 1   
    92   87   93 1   
    93   88   90 1   
    94   88   94 1   
    95   88   95 1   
    96   89   96 1   
    97   89   97 1   
    98   89   98 1   
    99   90   99 1   
   100   90  100 1   
   101   90  101 1   
   102  102  103 1   
   103  102  110 1   
   104  103  104 1   
   105  103  106 1   
   106  103  111 1   
   107  104  105 2   
   108  104  114 1   
   109  106  107 1   
   110  106  112 1   
   111  106  113 1   
   112  107  108 1   
   113  107  109 1   
   114  114  115 1   
   115  114  125 1   
   116  115  116 1   
   117  115  118 1   
   118  115  126 1   
   119  116  117 2   
   120  116  134 1   
   121  118  119 1   
   122  118  127 1   
   123  118  128 1   
   124  119  120 ar  
   125  119  121 ar  
   126  120  122 ar  
   127  120  129 1   
   128  121  123 ar  
   129  121  130 1   
   130  122  124 ar  
   131  122  131 1   
   132  123  124 ar  
   133  123  132 1   
   134  124  133 1   
   135  134  135 1   
   136  134  140 1   
   137  135  136 1   
   138  135  138 1   
   139  135  141 1   
   140  136  137 2   
   141  136  148 1   
   142  138  139 1   
   143  138  142 1   
   144  138  143 1   
   145  139  140 1   
   146  139  144 1   
   147  139  145 1   
   148  140  146 1   
   149  140  147 1   
   150  148  149 1   
   151  148  157 1   
   152  149  150 1   
   153  149  152 1   
   154  149  158 1   
   155  150  151 2   
   156  150  163 1   
   157  152  153 1   
   158  152  159 1   
   159  152  160 1   
   160  153  154 1   
   161  153  161 1   
   162  153  162 1   
   163  154  155 1   
   164  154  156 1   
   165  163  164 1   
   166  163  168 1   
   167  164  165 1   
   168  164  166 1   
   169  164  167 1   
   170  170  171 1   
   171  170  172 1   
   172  173  174 1   
   173  173  175 1   
@<TRIPOS>SUBSTRUCTURE
     1 MOL         1 TEMP              0 ****  ****    0 ROOT
