@<TRIPOS>MOLECULE
MOL
  183   181     1     0     0
SMALL
resp


@<TRIPOS>ATOM
      1 C1         -1.2050    2.6810    6.0780 c3        1 MOL     -0.306795
      2 C2         -1.4810    2.6270    4.5350 c         1 MOL      0.789060
      3 O1         -0.7110    3.0900    3.7010 o         1 MOL     -0.633435
      4 H1         -0.3100    3.2740    6.2650 hc        1 MOL      0.066573
      5 H2         -2.0560    3.1380    6.5830 hc        1 MOL      0.066573
      6 H3         -1.0570    1.6700    6.4570 hc        1 MOL      0.066573
      7 N1         -2.5930    1.9730    4.1400 n         1 MOL     -0.655906
      8 C3         -3.1050    1.8350    2.7460 c3        1 MOL      0.155269
      9 C4         -3.5370    3.1600    2.1110 c         1 MOL      0.531955
     10 O2         -4.4210    3.8500    2.5520 o         1 MOL     -0.584554
     11 C5         -4.2050    0.7610    2.7720 c3        1 MOL     -0.215558
     12 C6         -4.7240    0.2520    1.4210 c         1 MOL      0.805183
     13 O3         -5.8200   -0.3440    1.4900 o         1 MOL     -0.721963
     14 O4         -4.1640    0.4930    0.2920 o         1 MOL     -0.721963
     15 H4         -3.0770    1.4320    4.8290 hn        1 MOL      0.308617
     16 H5         -2.2580    1.4840    2.1560 h1        1 MOL      0.096090
     17 H6         -4.9460    1.1080    3.4810 hc        1 MOL      0.051515
     18 H7         -3.8870   -0.1500    3.2810 hc        1 MOL      0.051515
     19 N2         -2.8160    3.4880    1.0760 n         1 MOL     -0.297966
     20 C7         -2.9600    4.7110    0.3110 c3        1 MOL     -0.118863
     21 C8         -4.0710    4.6170   -0.7770 c         1 MOL      0.433381
     22 O5         -4.7670    5.6490   -1.0710 o         1 MOL     -0.565020
     23 C9         -1.5570    5.2660   -0.1920 c3        1 MOL      0.228479
     24 C10        -0.4460    5.2920    0.9210 c3        1 MOL      0.166338
     25 C11        -1.7360    6.7280   -0.7250 c3        1 MOL     -0.199676
     26 C12         0.8790    5.7770    0.4150 c3        1 MOL     -0.286924
     27 H8         -2.0710    2.8970    0.7360 hn        1 MOL      0.195679
     28 H9         -3.3350    5.5390    0.9150 h1        1 MOL      0.072651
     29 H10        -1.2620    4.5950   -0.9960 hc        1 MOL      0.000192
     30 H11        -0.2840    4.2500    1.2040 hc        1 MOL     -0.011316
     31 H12        -0.7890    5.8250    1.8080 hc        1 MOL     -0.011316
     32 H13        -1.7060    7.4460    0.0940 hc        1 MOL      0.021806
     33 H14        -0.8070    6.9620   -1.2490 hc        1 MOL      0.021806
     34 H15        -2.6220    6.7580   -1.3720 hc        1 MOL      0.021806
     35 H16         1.6100    5.4270    1.1440 hc        1 MOL      0.058406
     36 H17         1.0960    5.3720   -0.5670 hc        1 MOL      0.058406
     37 H18         0.8670    6.8660    0.4270 hc        1 MOL      0.058406
     38 N3         -4.3130    3.4100   -1.2410 n         1 MOL     -0.024439
     39 C13        -5.4310    3.0650   -2.1790 c3        1 MOL     -0.102145
     40 C14        -6.8780    2.9490   -1.6030 c         1 MOL      0.421418
     41 O6         -7.8990    3.4250   -2.0980 o         1 MOL     -0.541431
     42 C15        -5.0440    1.8440   -3.0260 c3        1 MOL      0.068229
     43 C16        -3.6090    1.8260   -3.4940 c         1 MOL      0.515022
     44 O7         -2.7000    1.2940   -2.7500 o         1 MOL     -0.647341
     45 O8         -3.3410    2.4970   -4.5320 o         1 MOL     -0.647341
     46 H19        -3.6870    2.6660   -0.9850 hn        1 MOL      0.108990
     47 H20        -5.4400    3.9590   -2.7970 h1        1 MOL      0.069592
     48 H21        -5.8050    1.7680   -3.8080 hc        1 MOL     -0.003500
     49 H22        -5.2190    0.9430   -2.4400 hc        1 MOL     -0.003500
     50 N4         -6.9410    2.1250   -0.5630 n         1 MOL     -0.128868
     51 C17        -8.0890    1.4400    0.1000 c3        1 MOL     -0.226579
     52 C18        -8.3130   -0.0160   -0.3600 c         1 MOL      0.623448
     53 O9         -9.3600   -0.5630   -0.0130 o         1 MOL     -0.620564
     54 H23        -6.0230    1.8090   -0.2590 hn        1 MOL      0.073059
     55 H24        -8.9520    2.0600   -0.1470 h1        1 MOL      0.112712
     56 H25        -7.9060    1.4870    1.1760 h1        1 MOL      0.112712
     57 N5         -7.3990   -0.5290   -1.1620 n         1 MOL     -0.356820
     58 C19        -7.5140   -1.9160   -1.6650 c3        1 MOL     -0.012882
     59 C20        -7.3380   -3.0200   -0.5250 c         1 MOL      0.410700
     60 O10        -7.3420   -4.2450   -0.8780 o         1 MOL     -0.550421
     61 C21        -6.6470   -2.1680   -2.9180 c3        1 MOL     -0.205923
     62 C22        -5.1010   -1.9420   -2.6340 c         1 MOL      0.734031
     63 O11        -4.3680   -1.6150   -3.6070 o         1 MOL     -0.729412
     64 O12        -4.5610   -2.0090   -1.5240 o         1 MOL     -0.729412
     65 H26        -6.4780   -0.1300   -1.2320 hn        1 MOL      0.255605
     66 H27        -8.5040   -2.1680   -2.0370 h1        1 MOL      0.092528
     67 H28        -6.9820   -1.4930   -3.7120 hc        1 MOL      0.069868
     68 H29        -6.7080   -3.1740   -3.3260 hc        1 MOL      0.069868
     69 N6         -7.1590   -2.6590    0.7890 n         1 MOL     -0.195230
     70 C23        -6.9700   -3.6030    1.8470 c3        1 MOL     -0.244654
     71 C24        -5.6210   -4.2060    1.9040 c         1 MOL      0.580297
     72 O13        -5.3700   -5.0910    2.6890 o         1 MOL     -0.634606
     73 H30        -7.0280   -1.6830    1.0070 hn        1 MOL      0.295525
     74 H31        -7.6390   -4.4500    1.7670 h1        1 MOL      0.104408
     75 H32        -7.1710   -3.1040    2.8000 h1        1 MOL      0.104408
     76 N7         -4.6610   -3.6740    1.2600 n         1 MOL     -0.029033
     77 C25        -3.2430   -4.1470    1.3740 c3        1 MOL     -0.161495
     78 C26        -2.1850   -3.0530    1.4010 c         1 MOL      0.795455
     79 O14        -2.4700   -1.9320    1.0270 o         1 MOL     -0.755498
     80 C27        -2.8990   -5.2440    0.3330 c3        1 MOL     -0.027306
     81 C28        -3.1740   -5.0410   -1.1240 c3        1 MOL     -0.062474
     82 C29        -2.1360   -4.1960   -1.8210 c         1 MOL      0.556518
     83 N8         -1.8090   -4.4970   -3.0390 n         1 MOL     -0.782847
     84 O15        -1.5900   -3.2620   -1.2570 o         1 MOL     -0.476650
     85 H33        -4.8950   -2.8980    0.6570 hn        1 MOL      0.069162
     86 H34        -3.0870   -4.5810    2.3640 h1        1 MOL      0.077060
     87 H35        -3.5150   -6.1080    0.5980 hc        1 MOL      0.019083
     88 H36        -1.8580   -5.5750    0.3550 hc        1 MOL      0.019083
     89 H37        -4.1520   -4.5730   -1.2600 hc        1 MOL      0.043978
     90 H38        -3.2490   -6.0410   -1.5600 hc        1 MOL      0.043978
     91 H39        -2.0000   -5.3700   -3.5200 hn        1 MOL      0.363163
     92 H40        -1.2960   -3.8550   -3.6300 hn        1 MOL      0.363163
     93 N9         -0.9500   -3.3720    1.8520 n         1 MOL     -0.611841
     94 C30         0.2060   -2.5100    2.0390 c3        1 MOL      0.106277
     95 C31         1.4410   -3.0140    1.3120 c         1 MOL      0.536763
     96 O16         1.9930   -3.9710    1.8790 o         1 MOL     -0.594144
     97 C32         0.4850   -2.2300    3.4980 c3        1 MOL      0.240874
     98 C33         1.3890   -0.9590    3.6950 c3        1 MOL     -0.316383
     99 C34        -0.8350   -1.8670    4.1780 c3        1 MOL     -0.316383
    100 H41        -0.7930   -4.3690    1.8770 hn        1 MOL      0.292354
    101 H42        -0.1040   -1.5760    1.5630 h1        1 MOL      0.126791
    102 H43         0.8150   -3.1360    4.0130 hc        1 MOL     -0.020334
    103 H44         0.7840   -0.0880    3.4220 hc        1 MOL      0.067527
    104 H45         1.6690   -0.8340    4.7420 hc        1 MOL      0.067527
    105 H46         2.1790   -0.9610    2.9480 hc        1 MOL      0.067527
    106 H47        -1.3020   -0.9530    3.8030 hc        1 MOL      0.067527
    107 H48        -1.5290   -2.7100    4.2000 hc        1 MOL      0.067527
    108 H49        -0.6650   -1.8120    5.2540 hc        1 MOL      0.067527
    109 N10         1.8810   -2.3850    0.2310 n         1 MOL     -0.407637
    110 C35         3.0720   -2.8030   -0.6040 c3        1 MOL      0.176541
    111 C36         4.3460   -2.0930   -0.0710 c         1 MOL      0.218968
    112 O17         4.1860   -1.0430    0.6410 o         1 MOL     -0.135216
    113 C37         2.8110   -2.6190   -2.0540 c3        1 MOL     -0.468140
    114 C38         3.2710   -1.2990   -2.6060 c         1 MOL      0.632321
    115 N11         2.4580   -0.2980   -2.5740 n         1 MOL     -0.759394
    116 O18         4.4150   -1.1750   -3.0110 o         1 MOL     -0.573143
    117 H50         1.2430   -1.7110   -0.1710 hn        1 MOL      0.158346
    118 H51         3.3050   -3.8620   -0.4910 h1        1 MOL      0.070653
    119 H52         1.7380   -2.5480   -2.2370 hc        1 MOL      0.156171
    120 H53         3.2390   -3.3700   -2.7310 hc        1 MOL      0.156171
    121 H54         1.5080   -0.5250   -2.3110 hn        1 MOL      0.395766
    122 H55         2.8150    0.5560   -2.9910 hn        1 MOL      0.395766
    123 N12         5.6110   -2.4810   -0.4520 n         1 MOL     -0.355488
    124 C39         6.8650   -1.9050    0.0470 c3        1 MOL      0.034221
    125 C40         7.0070   -0.3860   -0.1010 c         1 MOL      0.678797
    126 O19         7.6900    0.3030    0.7260 o         1 MOL     -0.533660
    127 C41         8.1050   -2.6910   -0.4240 c3        1 MOL     -0.131574
    128 C42         9.4600   -2.1310   -0.0190 ca        1 MOL      0.092096
    129 C43         9.7840   -2.2080    1.3620 ca        1 MOL     -0.340820
    130 C44        10.2640   -1.4610   -0.9320 ca        1 MOL     -0.340820
    131 C45        10.9760   -1.6710    1.7990 ca        1 MOL      0.028865
    132 C46        11.4980   -1.0310   -0.4730 ca        1 MOL      0.028865
    133 C47        11.8850   -1.1760    0.8700 ca        1 MOL      0.106972
    134 O20        13.0400   -0.7290    1.3580 oh        1 MOL     -0.532926
    135 H56         5.7850   -3.3950   -0.8390 hn        1 MOL      0.255975
    136 H57         6.8280   -2.0040    1.1300 h1        1 MOL      0.037717
    137 H58         8.0150   -2.7500   -1.5080 hc        1 MOL      0.060029
    138 H59         8.1140   -3.7070   -0.0340 hc        1 MOL      0.060029
    139 H60         9.1430   -2.7330    2.0520 ha        1 MOL      0.175938
    140 H61         9.9110   -1.1520   -1.9110 ha        1 MOL      0.175938
    141 H62        11.2880   -1.7590    2.8260 ha        1 MOL      0.065731
    142 H63        12.2730   -0.6060   -1.1060 ha        1 MOL      0.065731
    143 H64        13.6050   -0.2150    0.7690 ho        1 MOL      0.411957
    144 N13         6.3530    0.2050   -1.1000 n         1 MOL     -0.193390
    145 C48         6.3100    1.6200   -1.4020 c3        1 MOL     -0.128964
    146 C49         5.4190    2.4330   -0.4550 c         1 MOL      0.266283
    147 O21         5.8370    3.5010    0.0650 o         1 MOL     -0.484210
    148 C50         6.0300    1.9080   -2.8840 c3        1 MOL      0.407757
    149 C51         6.9890    1.2910   -3.9200 c3        1 MOL     -0.335672
    150 C52         8.4620    1.6850   -3.7020 c         1 MOL      0.737620
    151 O22         9.3140    0.8760   -4.1120 o         1 MOL     -0.727132
    152 O23         8.6950    2.7100   -3.0200 o         1 MOL     -0.727132
    153 H65         6.0500   -0.5110   -1.7500 hn        1 MOL      0.164998
    154 H66         7.2650    2.0810   -1.1580 h1        1 MOL      0.132386
    155 H67         5.9600    2.9890   -3.0430 hc        1 MOL     -0.086765
    156 H68         5.0180    1.5490   -3.0630 hc        1 MOL     -0.086765
    157 H69         6.6460    1.7290   -4.8560 hc        1 MOL      0.022274
    158 H70         6.8320    0.2150   -3.8170 hc        1 MOL      0.022274
    159 N14         4.2740    1.8960   -0.0350 n         1 MOL     -0.183962
    160 C53         3.4500    2.3580    1.1170 c3        1 MOL     -0.089144
    161 C54         4.1820    2.0930    2.4760 c         1 MOL      0.528542
    162 O24         4.0520    2.8700    3.3500 o         1 MOL     -0.574735
    163 C55         2.1280    1.6310    1.1950 c3        1 MOL      0.012286
    164 C56         1.2470    1.9800   -0.0460 c3        1 MOL      0.226819
    165 C57        -0.0250    1.1390   -0.1660 c         1 MOL      0.517228
    166 O25        -1.1000    1.7250   -0.1140 o         1 MOL     -0.666676
    167 O26        -0.0900   -0.1170   -0.3970 o         1 MOL     -0.666676
    168 H71         3.9200    1.0680   -0.4950 hn        1 MOL      0.156496
    169 H72         3.3450    3.4460    1.1320 h1        1 MOL      0.097795
    170 H73         1.6130    2.0110    2.0860 hc        1 MOL      0.037011
    171 H74         2.2810    0.5580    1.2600 hc        1 MOL      0.037011
    172 H75         1.8570    1.8130   -0.9370 hc        1 MOL     -0.079959
    173 H76         0.9900    3.0340   -0.1220 hc        1 MOL     -0.079959
    174 N15         4.9470    1.0170    2.5590 n         1 MOL      0.043851
    175 C58         5.6950    0.5820    3.7690 c3        1 MOL     -0.410770
    176 H77         5.8800   -0.4910    3.7150 h1        1 MOL      0.129719
    177 H78         6.6470    1.1120    3.8190 h1        1 MOL      0.129719
    178 H79         5.1080    0.8040    4.6600 h1        1 MOL      0.129719
    179 H80         4.9560    0.3850    1.7740 hn        1 MOL     -0.131615
    180 Ca1        -2.4530   -0.6560   -1.1520 Ca        1 MOL      1.720441
    181 O27        -0.4050   -1.0930   -3.2300 oh        1 MOL     -0.858594
    182 H81         0.0350   -1.6020   -3.9000 ho        1 MOL      0.407149
    183 H82        -0.3160   -0.1850   -3.5160 ho        1 MOL      0.407149
@<TRIPOS>BOND
     1    1    2 1   
     2    1    4 1   
     3    1    5 1   
     4    1    6 1   
     5    2    3 2   
     6    2    7 1   
     7    7    8 1   
     8    7   15 1   
     9    8    9 1   
    10    8   11 1   
    11    8   16 1   
    12    9   10 2   
    13    9   19 1   
    14   11   12 1   
    15   11   17 1   
    16   11   18 1   
    17   12   13 1   
    18   12   14 1   
    19   19   20 1   
    20   19   27 1   
    21   20   21 1   
    22   20   23 1   
    23   20   28 1   
    24   21   22 2   
    25   21   38 1   
    26   23   24 1   
    27   23   25 1   
    28   23   29 1   
    29   24   26 1   
    30   24   30 1   
    31   24   31 1   
    32   25   32 1   
    33   25   33 1   
    34   25   34 1   
    35   26   35 1   
    36   26   36 1   
    37   26   37 1   
    38   38   39 1   
    39   38   46 1   
    40   39   40 1   
    41   39   42 1   
    42   39   47 1   
    43   40   41 2   
    44   40   50 1   
    45   42   43 1   
    46   42   48 1   
    47   42   49 1   
    48   43   44 1   
    49   43   45 1   
    50   50   51 1   
    51   50   54 1   
    52   51   52 1   
    53   51   55 1   
    54   51   56 1   
    55   52   53 2   
    56   52   57 1   
    57   57   58 1   
    58   57   65 1   
    59   58   59 1   
    60   58   61 1   
    61   58   66 1   
    62   59   60 2   
    63   59   69 1   
    64   61   62 1   
    65   61   67 1   
    66   61   68 1   
    67   62   63 1   
    68   62   64 1   
    69   69   70 1   
    70   69   73 1   
    71   70   71 1   
    72   70   74 1   
    73   70   75 1   
    74   71   72 2   
    75   71   76 1   
    76   76   77 1   
    77   76   85 1   
    78   77   78 1   
    79   77   80 1   
    80   77   86 1   
    81   78   79 2   
    82   78   93 1   
    83   80   81 1   
    84   80   87 1   
    85   80   88 1   
    86   81   82 1   
    87   81   89 1   
    88   81   90 1   
    89   82   83 1   
    90   82   84 2   
    91   83   91 1   
    92   83   92 1   
    93   93   94 1   
    94   93  100 1   
    95   94   95 1   
    96   94   97 1   
    97   94  101 1   
    98   95   96 2   
    99   95  109 1   
   100   97   98 1   
   101   97   99 1   
   102   97  102 1   
   103   98  103 1   
   104   98  104 1   
   105   98  105 1   
   106   99  106 1   
   107   99  107 1   
   108   99  108 1   
   109  109  110 1   
   110  109  117 1   
   111  110  111 1   
   112  110  113 1   
   113  110  118 1   
   114  111  112 2   
   115  111  123 1   
   116  113  114 1   
   117  113  119 1   
   118  113  120 1   
   119  114  115 1   
   120  114  116 2   
   121  115  121 1   
   122  115  122 1   
   123  123  124 1   
   124  123  135 1   
   125  124  125 1   
   126  124  127 1   
   127  124  136 1   
   128  125  126 2   
   129  125  144 1   
   130  127  128 1   
   131  127  137 1   
   132  127  138 1   
   133  128  129 ar  
   134  128  130 ar  
   135  129  131 ar  
   136  129  139 1   
   137  130  132 ar  
   138  130  140 1   
   139  131  133 ar  
   140  131  141 1   
   141  132  133 ar  
   142  132  142 1   
   143  133  134 1   
   144  134  143 1   
   145  144  145 1   
   146  144  153 1   
   147  145  146 1   
   148  145  148 1   
   149  145  154 1   
   150  146  147 2   
   151  146  159 1   
   152  148  149 1   
   153  148  155 1   
   154  148  156 1   
   155  149  150 1   
   156  149  157 1   
   157  149  158 1   
   158  150  151 1   
   159  150  152 1   
   160  159  160 1   
   161  159  168 1   
   162  160  161 1   
   163  160  163 1   
   164  160  169 1   
   165  161  162 2   
   166  161  174 1   
   167  163  164 1   
   168  163  170 1   
   169  163  171 1   
   170  164  165 1   
   171  164  172 1   
   172  164  173 1   
   173  165  166 1   
   174  165  167 1   
   175  174  175 1   
   176  174  179 1   
   177  175  176 1   
   178  175  177 1   
   179  175  178 1   
   180  181  182 1   
   181  181  183 1   
@<TRIPOS>SUBSTRUCTURE
     1 MOL         1 TEMP              0 ****  ****    0 ROOT
