@<TRIPOS>MOLECULE
MOL
  189   185     1     0     0
SMALL
resp


@<TRIPOS>ATOM
      1 C1         -0.0190    2.1370    5.9630 c3        1 MOL     -0.381735
      2 C2         -0.3470    1.9160    4.5040 c         1 MOL      0.744389
      3 O1          0.2040    2.5620    3.6030 o         1 MOL     -0.646950
      4 H1         -0.0060    3.2060    6.1750 hc        1 MOL      0.097997
      5 H2         -0.7750    1.6540    6.5840 hc        1 MOL      0.097997
      6 H3          0.9600    1.7110    6.1850 hc        1 MOL      0.097997
      7 N1         -1.3450    1.1120    4.1870 n         1 MOL     -0.610625
      8 C3         -2.0410    1.3230    2.8080 c3        1 MOL      0.181669
      9 C4         -2.4670    2.8260    2.6020 c         1 MOL      0.556256
     10 O2         -3.0920    3.4710    3.4530 o         1 MOL     -0.563355
     11 C5         -3.2230    0.3560    2.8450 c3        1 MOL     -0.038493
     12 C6         -4.0790    0.3980    1.5170 c         1 MOL      0.525074
     13 O3         -5.3260    0.6190    1.6190 o         1 MOL     -0.630367
     14 O4         -3.4520    0.3700    0.4450 o         1 MOL     -0.630367
     15 H4         -1.6630    0.4420    4.8730 hn        1 MOL      0.327870
     16 H5         -1.4170    1.1000    1.9390 h1        1 MOL      0.032547
     17 H6         -3.8350    0.5500    3.7180 hc        1 MOL     -0.002972
     18 H7         -2.8320   -0.6680    2.8720 hc        1 MOL     -0.002972
     19 N2         -2.1140    3.2960    1.3940 n         1 MOL     -0.362015
     20 C7         -2.1600    4.6830    0.9960 c3        1 MOL      0.053354
     21 C8         -3.0270    4.9490   -0.2640 c         1 MOL      0.446361
     22 O5         -3.2450    6.0830   -0.6470 o         1 MOL     -0.560679
     23 C9         -0.7030    5.1360    0.7270 c3        1 MOL      0.394856
     24 C10        -0.3820    6.4670   -0.0200 c3        1 MOL     -0.124186
     25 C11        -0.9250    7.6570    0.7790 c3        1 MOL     -0.212981
     26 C12        -0.1530    7.8610    2.0820 c3        1 MOL      0.013378
     27 N3          1.1300    8.5230    1.8070 n4        1 MOL     -0.508514
     28 H8         -1.6840    2.5880    0.8050 hn        1 MOL      0.167438
     29 H9         -2.5030    5.3250    1.8070 h1        1 MOL      0.036400
     30 H10        -0.2140    4.4480    0.0350 hc        1 MOL     -0.070264
     31 H11        -0.1320    5.1030    1.6540 hc        1 MOL     -0.070264
     32 H12        -0.7840    6.5030   -1.0380 hc        1 MOL      0.039866
     33 H13         0.7040    6.4750   -0.0600 hc        1 MOL      0.039866
     34 H14        -1.9940    7.5900    1.0190 hc        1 MOL      0.092225
     35 H15        -0.8490    8.5310    0.1340 hc        1 MOL      0.092225
     36 H16        -0.0420    6.8330    2.4350 hx        1 MOL      0.111060
     37 H17        -0.6800    8.3960    2.8770 hx        1 MOL      0.111060
     38 H18         1.2390    9.2840    2.4610 hn        1 MOL      0.361303
     39 H19         1.9260    7.9100    1.8900 hn        1 MOL      0.361303
     40 H20         1.1300    8.9130    0.8630 hn        1 MOL      0.361303
     41 N4         -3.5130    3.9190   -0.8840 n         1 MOL     -0.290943
     42 C13        -4.3360    3.9590   -2.1120 c3        1 MOL      0.041215
     43 C14        -5.5140    2.9390   -2.1590 c         1 MOL      0.550897
     44 O6         -6.0440    2.6570   -3.1910 o         1 MOL     -0.531276
     45 C15        -3.4560    3.9390   -3.3710 c3        1 MOL     -0.239330
     46 C16        -2.6260    2.6650   -3.3950 c         1 MOL      0.824454
     47 O7         -1.5880    2.6660   -4.0990 o         1 MOL     -0.713513
     48 O8         -2.7810    1.6920   -2.5830 o         1 MOL     -0.713513
     49 H21        -3.1850    3.0370   -0.5380 hn        1 MOL      0.190623
     50 H22        -4.8540    4.9100   -2.0180 h1        1 MOL      0.062221
     51 H23        -2.7830    4.8010   -3.4450 hc        1 MOL      0.067733
     52 H24        -4.1470    3.9090   -4.2160 hc        1 MOL      0.067733
     53 N5         -5.9980    2.5620   -1.0220 n         1 MOL     -0.343109
     54 C17        -7.2980    2.0140   -0.7000 c3        1 MOL     -0.209986
     55 C18        -7.7050    0.6620   -1.3470 c         1 MOL      0.505400
     56 O9         -8.8740    0.2770   -1.2840 o         1 MOL     -0.597876
     57 H25        -5.4530    2.9210   -0.2510 hn        1 MOL      0.246532
     58 H26        -8.0660    2.7620   -0.9110 h1        1 MOL      0.127640
     59 H27        -7.2580    1.7870    0.3670 h1        1 MOL      0.127640
     60 N6         -6.8060   -0.1470   -1.8330 n         1 MOL     -0.141945
     61 C19        -7.0440   -1.5340   -2.1740 c3        1 MOL      0.024671
     62 C20        -7.0290   -2.4980   -0.8950 c         1 MOL      0.356643
     63 O10        -7.3020   -3.7100   -0.9600 o         1 MOL     -0.519826
     64 C21        -6.0240   -1.8520   -3.2800 c3        1 MOL     -0.265384
     65 C22        -4.6080   -1.6750   -2.7810 c         1 MOL      0.802507
     66 O11        -3.8200   -1.1470   -3.5180 o         1 MOL     -0.716134
     67 O12        -4.2070   -2.0590   -1.6230 o         1 MOL     -0.716134
     68 H28        -5.8240    0.0980   -1.7680 hn        1 MOL      0.104102
     69 H29        -8.0590   -1.4450   -2.5720 h1        1 MOL      0.098949
     70 H30        -6.3250   -1.1910   -4.1060 hc        1 MOL      0.070374
     71 H31        -6.3040   -2.8860   -3.4520 hc        1 MOL      0.070374
     72 N7         -6.7200   -1.9440    0.3030 n         1 MOL     -0.155780
     73 C23        -6.6310   -2.7220    1.5880 c3        1 MOL     -0.189826
     74 C24        -5.4000   -3.6560    1.6660 c         1 MOL      0.539381
     75 O13        -5.4160   -4.5500    2.4830 o         1 MOL     -0.599680
     76 H32        -6.6690   -0.9340    0.3620 hn        1 MOL      0.214568
     77 H33        -7.4770   -3.3990    1.5650 h1        1 MOL      0.109012
     78 H34        -6.7090   -2.0770    2.4620 h1        1 MOL      0.109012
     79 N8         -4.3190   -3.5120    0.9370 n         1 MOL     -0.038336
     80 C25        -3.0840   -4.2540    1.1850 c3        1 MOL     -0.063868
     81 C26        -1.8360   -3.3660    1.0620 c         1 MOL      0.592725
     82 O14        -1.8850   -2.1960    0.5560 o         1 MOL     -0.608445
     83 C27        -2.9560   -5.5150    0.2840 c3        1 MOL      0.287531
     84 C28        -4.1430   -6.5350    0.3940 c3        1 MOL     -0.379665
     85 O15        -2.9960   -5.1750   -1.0590 oh        1 MOL     -0.597816
     86 H35        -4.3030   -2.7840    0.2360 hn        1 MOL      0.064865
     87 H36        -3.0320   -4.5500    2.2250 h1        1 MOL      0.044517
     88 H37        -2.0280   -5.9970    0.5690 h1        1 MOL     -0.000035
     89 H38        -3.5940   -5.8280   -1.4370 ho        1 MOL      0.401800
     90 H39        -4.2720   -6.8300    1.4300 hc        1 MOL      0.106705
     91 H40        -5.0380   -6.0340    0.0500 hc        1 MOL      0.106705
     92 H41        -3.8690   -7.4270   -0.1620 hc        1 MOL      0.106705
     93 N9         -0.6800   -3.8970    1.5800 n         1 MOL     -0.436062
     94 C29         0.5980   -3.1950    1.5700 c3        1 MOL      0.112478
     95 C30         1.6270   -3.6870    0.5470 c         1 MOL      0.479152
     96 O16         1.9780   -4.8360    0.6690 o         1 MOL     -0.546050
     97 C31         1.1470   -3.4060    3.0420 c3        1 MOL     -0.035059
     98 C32         0.3220   -2.5800    4.0250 c3        1 MOL      0.255909
     99 C33         2.6600   -3.0250    3.2150 c3        1 MOL     -0.198373
    100 C34         0.7410   -2.5100    5.4670 c3        1 MOL     -0.248820
    101 H42        -0.6760   -4.8420    1.9330 hn        1 MOL      0.273037
    102 H43         0.5020   -2.1060    1.5110 h1        1 MOL      0.072151
    103 H44         0.9260   -4.4360    3.3220 hc        1 MOL      0.027084
    104 H45        -0.6810   -2.9950    4.1070 hc        1 MOL     -0.058637
    105 H46         0.1850   -1.5410    3.7210 hc        1 MOL     -0.058637
    106 H47         2.9210   -2.0380    2.8360 hc        1 MOL      0.037724
    107 H48         2.9750   -3.0110    4.2580 hc        1 MOL      0.037724
    108 H49         3.2840   -3.6990    2.6380 hc        1 MOL      0.037724
    109 H50         1.0610   -3.5140    5.7530 hc        1 MOL      0.051643
    110 H51         1.6230   -1.9100    5.6550 hc        1 MOL      0.051643
    111 H52        -0.0620   -2.2290    6.1590 hc        1 MOL      0.051643
    112 N10         2.1190   -2.8630   -0.3670 n         1 MOL     -0.131720
    113 C35         3.2210   -3.1040   -1.2930 c3        1 MOL      0.033595
    114 C36         4.5670   -2.9280   -0.6600 c         1 MOL      0.233100
    115 O17         4.6780   -2.5910    0.5410 o         1 MOL     -0.303201
    116 C37         3.2950   -2.0810   -2.4660 c3        1 MOL      0.177216
    117 C38         2.0530   -2.0250   -3.2830 c3        1 MOL     -0.401658
    118 O18         3.3000   -0.7480   -2.0070 oh        1 MOL     -0.490201
    119 H53         1.8330   -1.8940   -0.3680 hn        1 MOL     -0.013354
    120 H54         3.2030   -4.1440   -1.6280 h1        1 MOL      0.070070
    121 H55         4.2150   -2.2410   -3.0260 h1        1 MOL      0.096398
    122 H56         2.5100   -0.6640   -1.4690 ho        1 MOL      0.336870
    123 H57         2.2490   -1.3430   -4.1070 hc        1 MOL      0.112182
    124 H58         1.8440   -3.0420   -3.6150 hc        1 MOL      0.112182
    125 H59         1.2140   -1.7150   -2.6640 hc        1 MOL      0.112182
    126 N11         5.6690   -3.2250   -1.3710 n         1 MOL     -0.096679
    127 C39         7.0320   -3.1810   -0.8460 c3        1 MOL     -0.278296
    128 C40         7.3970   -1.6700   -0.5970 c         1 MOL      0.517854
    129 O19         8.3250   -1.4480    0.1750 o         1 MOL     -0.525255
    130 C41         8.0530   -3.7860   -1.7440 c3        1 MOL      0.408420
    131 C42         7.6900   -5.2200   -2.1710 c3        1 MOL     -0.464151
    132 O20         7.9550   -3.0410   -2.9940 oh        1 MOL     -0.648047
    133 H60         5.4890   -3.6360   -2.2830 hn        1 MOL      0.176323
    134 H61         7.0610   -3.7380    0.0840 h1        1 MOL      0.155590
    135 H62         9.0680   -3.7490   -1.3410 h1        1 MOL      0.038740
    136 H63         8.7140   -3.2650   -3.5340 ho        1 MOL      0.399374
    137 H64         7.5660   -5.7370   -1.2240 hc        1 MOL      0.126946
    138 H65         6.7400   -5.3250   -2.6970 hc        1 MOL      0.126946
    139 H66         8.4600   -5.6460   -2.8080 hc        1 MOL      0.126946
    140 N12         6.8310   -0.7170   -1.3230 n         1 MOL     -0.412932
    141 C43         7.0100    0.7070   -1.0930 c3        1 MOL      0.012026
    142 C44         6.1900    1.1990    0.0780 c         1 MOL      0.339913
    143 O21         6.6210    2.0350    0.8090 o         1 MOL     -0.506878
    144 C45         6.6910    1.4640   -2.4040 c3        1 MOL      0.098198
    145 C46         6.9270    2.9750   -2.3740 c3        1 MOL     -0.349592
    146 C47         8.3950    3.1850   -1.9690 c3        1 MOL      0.175364
    147 C48         8.7490    4.5890   -2.3420 c3        1 MOL     -0.071454
    148 N13        10.1840    4.9100   -2.0910 n4        1 MOL     -0.131923
    149 H67         6.1100   -0.9820   -1.9870 hn        1 MOL      0.218483
    150 H68         8.0600    0.8210   -0.8030 h1        1 MOL      0.092263
    151 H69         5.6450    1.3430   -2.6830 hc        1 MOL      0.021825
    152 H70         7.2600    1.0410   -3.2260 hc        1 MOL      0.021825
    153 H71         6.2560    3.4180   -1.6340 hc        1 MOL      0.115839
    154 H72         6.7200    3.2580   -3.4020 hc        1 MOL      0.115839
    155 H73         9.0690    2.4990   -2.4930 hc        1 MOL      0.004974
    156 H74         8.6170    2.9490   -0.9270 hc        1 MOL      0.004974
    157 H75         8.2560    5.2510   -1.6300 hx        1 MOL      0.089473
    158 H76         8.4590    4.8440   -3.3660 hx        1 MOL      0.089473
    159 H77        10.4550    5.8470   -2.3490 hn        1 MOL      0.245367
    160 H78        10.5100    4.6500   -1.1770 hn        1 MOL      0.245367
    161 H79        10.7590    4.3640   -2.7130 hn        1 MOL      0.245367
    162 N14         4.9900    0.6440    0.2590 n         1 MOL     -0.026668
    163 C49         4.2080    0.9540    1.4740 c3        1 MOL     -0.215033
    164 C50         4.8220    0.2940    2.7210 c         1 MOL      0.410719
    165 O22         4.7980    0.8240    3.8420 o         1 MOL     -0.553377
    166 C51         2.6900    0.7000    1.3840 c3        1 MOL      0.371954
    167 C52         1.9520    1.4470    0.2740 c3        1 MOL     -0.048226
    168 C53         0.6340    0.7720   -0.1400 c         1 MOL      0.559408
    169 O23        -0.4610    1.3450   -0.1410 o         1 MOL     -0.569645
    170 O24         0.6610   -0.4150   -0.5330 o         1 MOL     -0.569645
    171 H80         4.5220    0.2900   -0.5620 hn        1 MOL      0.156797
    172 H81         4.3130    2.0410    1.4460 h1        1 MOL      0.076565
    173 H82         2.3180    0.9610    2.3760 hc        1 MOL     -0.049614
    174 H83         2.4540   -0.3440    1.1570 hc        1 MOL     -0.049614
    175 H84         2.6790    1.4280   -0.5380 hc        1 MOL     -0.045876
    176 H85         1.7480    2.4130    0.7290 hc        1 MOL     -0.045876
    177 N15         5.4000   -0.8920    2.5800 n         1 MOL      0.041759
    178 C54         6.2350   -1.5410    3.6710 c3        1 MOL     -0.221732
    179 H86         5.9370   -1.1430    4.6410 h1        1 MOL      0.088681
    180 H87         6.0780   -2.6200    3.6580 h1        1 MOL      0.088681
    181 H88         7.2890   -1.3250    3.5000 h1        1 MOL      0.088681
    182 H89         5.3000   -1.4070    1.7160 hn        1 MOL      0.024077
    183 Ca1        -2.0870   -0.5400   -1.4020 Ca        1 MOL      1.701117
    184 O25        -1.4240   -3.1600   -2.2980 oh        1 MOL     -0.863818
    185 H90        -1.3610   -3.4620   -3.2050 ho        1 MOL      0.404550
    186 H91        -2.1090   -3.7090   -1.9090 ho        1 MOL      0.404550
    187 O26        -0.4590    0.1300   -3.3230 oh        1 MOL     -0.863818
    188 H92        -0.4710    1.0240   -3.6700 ho        1 MOL      0.404550
    189 H93         0.2260   -0.3130   -3.8380 ho        1 MOL      0.404550
@<TRIPOS>BOND
     1    1    2 1   
     2    1    4 1   
     3    1    5 1   
     4    1    6 1   
     5    2    3 2   
     6    2    7 1   
     7    7    8 1   
     8    7   15 1   
     9    8    9 1   
    10    8   11 1   
    11    8   16 1   
    12    9   10 2   
    13    9   19 1   
    14   11   12 1   
    15   11   17 1   
    16   11   18 1   
    17   12   13 1   
    18   12   14 1   
    19   19   20 1   
    20   19   28 1   
    21   20   21 1   
    22   20   23 1   
    23   20   29 1   
    24   21   22 2   
    25   21   41 1   
    26   23   24 1   
    27   23   30 1   
    28   23   31 1   
    29   24   25 1   
    30   24   32 1   
    31   24   33 1   
    32   25   26 1   
    33   25   34 1   
    34   25   35 1   
    35   26   27 1   
    36   26   36 1   
    37   26   37 1   
    38   27   38 1   
    39   27   39 1   
    40   27   40 1   
    41   41   42 1   
    42   41   49 1   
    43   42   43 1   
    44   42   45 1   
    45   42   50 1   
    46   43   44 2   
    47   43   53 1   
    48   45   46 1   
    49   45   51 1   
    50   45   52 1   
    51   46   47 1   
    52   46   48 1   
    53   53   54 1   
    54   53   57 1   
    55   54   55 1   
    56   54   58 1   
    57   54   59 1   
    58   55   56 2   
    59   55   60 1   
    60   60   61 1   
    61   60   68 1   
    62   61   62 1   
    63   61   64 1   
    64   61   69 1   
    65   62   63 2   
    66   62   72 1   
    67   64   65 1   
    68   64   70 1   
    69   64   71 1   
    70   65   66 1   
    71   65   67 1   
    72   72   73 1   
    73   72   76 1   
    74   73   74 1   
    75   73   77 1   
    76   73   78 1   
    77   74   75 2   
    78   74   79 1   
    79   79   80 1   
    80   79   86 1   
    81   80   81 1   
    82   80   83 1   
    83   80   87 1   
    84   81   82 2   
    85   81   93 1   
    86   83   84 1   
    87   83   85 1   
    88   83   88 1   
    89   84   90 1   
    90   84   91 1   
    91   84   92 1   
    92   85   89 1   
    93   93   94 1   
    94   93  101 1   
    95   94   95 1   
    96   94   97 1   
    97   94  102 1   
    98   95   96 2   
    99   95  112 1   
   100   97   98 1   
   101   97   99 1   
   102   97  103 1   
   103   98  100 1   
   104   98  104 1   
   105   98  105 1   
   106   99  106 1   
   107   99  107 1   
   108   99  108 1   
   109  100  109 1   
   110  100  110 1   
   111  100  111 1   
   112  112  113 1   
   113  112  119 1   
   114  113  114 1   
   115  113  116 1   
   116  113  120 1   
   117  114  115 2   
   118  114  126 1   
   119  116  117 1   
   120  116  118 1   
   121  116  121 1   
   122  117  123 1   
   123  117  124 1   
   124  117  125 1   
   125  118  122 1   
   126  126  127 1   
   127  126  133 1   
   128  127  128 1   
   129  127  130 1   
   130  127  134 1   
   131  128  129 2   
   132  128  140 1   
   133  130  131 1   
   134  130  132 1   
   135  130  135 1   
   136  131  137 1   
   137  131  138 1   
   138  131  139 1   
   139  132  136 1   
   140  140  141 1   
   141  140  149 1   
   142  141  142 1   
   143  141  144 1   
   144  141  150 1   
   145  142  143 2   
   146  142  162 1   
   147  144  145 1   
   148  144  151 1   
   149  144  152 1   
   150  145  146 1   
   151  145  153 1   
   152  145  154 1   
   153  146  147 1   
   154  146  155 1   
   155  146  156 1   
   156  147  148 1   
   157  147  157 1   
   158  147  158 1   
   159  148  159 1   
   160  148  160 1   
   161  148  161 1   
   162  162  163 1   
   163  162  171 1   
   164  163  164 1   
   165  163  166 1   
   166  163  172 1   
   167  164  165 2   
   168  164  177 1   
   169  166  167 1   
   170  166  173 1   
   171  166  174 1   
   172  167  168 1   
   173  167  175 1   
   174  167  176 1   
   175  168  169 1   
   176  168  170 1   
   177  177  178 1   
   178  177  182 1   
   179  178  179 1   
   180  178  180 1   
   181  178  181 1   
   182  184  185 1   
   183  184  186 1   
   184  187  188 1   
   185  187  189 1   
@<TRIPOS>SUBSTRUCTURE
     1 MOL         1 TEMP              0 ****  ****    0 ROOT
