@<TRIPOS>MOLECULE
MOL
  179   176     1     0     0
SMALL
resp


@<TRIPOS>ATOM
      1 C1          2.2090    2.5370    5.2780 c3        1 MOL     -0.245246
      2 C2          1.5060    2.3190    3.9390 c         1 MOL      0.542117
      3 O1          2.1730    2.4840    2.8890 o         1 MOL     -0.540932
      4 H1          2.8660    3.4040    5.2050 hc        1 MOL      0.073791
      5 H2          1.4650    2.7110    6.0550 hc        1 MOL      0.073791
      6 H3          2.7980    1.6550    5.5290 hc        1 MOL      0.073791
      7 N1          0.1800    2.1280    3.9310 n         1 MOL     -0.407787
      8 C3         -0.6130    2.0750    2.7130 c3        1 MOL      0.127042
      9 C4         -0.8130    3.4020    2.0060 c         1 MOL      0.367798
     10 O2         -1.9010    3.9500    2.0480 o         1 MOL     -0.442289
     11 C5         -1.9560    1.3600    3.0970 c3        1 MOL     -0.258359
     12 C6         -2.8650    1.1480    1.9090 c         1 MOL      0.675805
     13 O3         -4.1220    1.2190    2.0600 o         1 MOL     -0.657820
     14 O4         -2.3850    1.0470    0.7360 o         1 MOL     -0.657820
     15 H4         -0.3120    2.0670    4.8140 hn        1 MOL      0.298681
     16 H5         -0.0580    1.4150    2.0490 h1        1 MOL      0.020826
     17 H6         -2.3410    1.9770    3.9030 hc        1 MOL      0.066065
     18 H7         -1.8660    0.3540    3.5050 hc        1 MOL      0.066065
     19 N2          0.1970    3.9210    1.3310 n         1 MOL     -0.101076
     20 C7          0.3780    5.3460    0.8550 c3        1 MOL     -0.176414
     21 C8         -0.6440    5.9010   -0.1360 c         1 MOL      0.631142
     22 O5         -0.8710    7.0610   -0.1440 o         1 MOL     -0.566854
     23 C9          1.8190    5.4060    0.2970 c3        1 MOL      0.010475
     24 C10         2.4980    6.7070    0.7250 c3        1 MOL      0.060939
     25 C11         4.0160    6.9220    0.5020 c3        1 MOL     -0.168536
     26 C12         4.3100    6.9470   -0.9290 c3        1 MOL      0.018912
     27 N3          4.2250    8.3120   -1.5410 n4        1 MOL     -0.356353
     28 H8          0.9830    3.2910    1.2400 hn        1 MOL      0.134900
     29 H9          0.3820    5.9720    1.7560 h1        1 MOL      0.091076
     30 H10         1.7700    5.2260   -0.7700 hc        1 MOL      0.056949
     31 H11         2.4600    4.6720    0.7910 hc        1 MOL      0.056949
     32 H12         2.3910    6.7690    1.8040 hc        1 MOL     -0.005524
     33 H13         1.9280    7.5440    0.3140 hc        1 MOL     -0.005524
     34 H14         4.5230    6.0630    0.9540 hc        1 MOL      0.105537
     35 H15         4.4050    7.8390    0.9250 hc        1 MOL      0.105537
     36 H16         3.6630    6.2290   -1.4380 hx        1 MOL      0.087805
     37 H17         5.3430    6.6280   -1.0790 hx        1 MOL      0.087805
     38 H18         4.3800    8.3810   -2.5460 hn        1 MOL      0.322433
     39 H19         3.2840    8.6600   -1.4210 hn        1 MOL      0.322433
     40 H20         4.9170    8.9740   -1.2200 hn        1 MOL      0.322433
     41 N4         -1.2060    5.0210   -0.9800 n         1 MOL     -0.445393
     42 C13        -2.2280    5.2870   -2.0500 c3        1 MOL     -0.046479
     43 C14        -3.6000    4.8800   -1.3700 c         1 MOL      0.438987
     44 O6         -4.6350    5.1030   -1.9640 o         1 MOL     -0.568374
     45 C15        -2.0360    4.3670   -3.2740 c3        1 MOL     -0.114340
     46 C16        -1.9240    2.8180   -3.2190 c         1 MOL      0.819231
     47 O7         -2.1250    2.1820   -2.1700 o         1 MOL     -0.752708
     48 O8         -1.4140    2.3440   -4.2270 o         1 MOL     -0.752708
     49 H21        -0.9020    4.0620   -0.8860 hn        1 MOL      0.281208
     50 H22        -2.3400    6.3270   -2.3530 h1        1 MOL      0.124310
     51 H23        -1.0990    4.7000   -3.7350 hc        1 MOL      0.038460
     52 H24        -2.7170    4.6650   -4.0770 hc        1 MOL      0.038460
     53 N5         -3.6840    4.3650   -0.1520 n         1 MOL     -0.046049
     54 C17        -4.9190    4.1490    0.6290 c3        1 MOL     -0.161922
     55 C18        -5.8250    3.0960   -0.0440 c         1 MOL      0.581451
     56 O9         -6.9900    3.2670    0.0570 o         1 MOL     -0.594184
     57 H25        -2.8630    4.2790    0.4240 hn        1 MOL      0.063784
     58 H26        -5.4630    5.0970    0.6670 h1        1 MOL      0.090382
     59 H27        -4.6670    3.8750    1.6540 h1        1 MOL      0.090382
     60 N6         -5.2620    2.1250   -0.6860 n         1 MOL     -0.096434
     61 C19        -6.0760    1.0770   -1.3820 c3        1 MOL     -0.190946
     62 C20        -6.5750   -0.0730   -0.5350 c         1 MOL      0.398838
     63 O10        -7.4660   -0.7900   -0.9260 o         1 MOL     -0.481177
     64 C21        -5.3930    0.5810   -2.7250 c3        1 MOL      0.021408
     65 C22        -4.3970   -0.5160   -2.4710 c         1 MOL      0.509826
     66 N7         -4.1870   -1.4900   -3.3230 n         1 MOL     -0.644991
     67 O11        -3.5420   -0.4760   -1.5590 o         1 MOL     -0.591673
     68 H28        -4.2530    2.0610   -0.7120 hn        1 MOL      0.047911
     69 H29        -6.9420    1.6070   -1.7970 h1        1 MOL      0.138720
     70 H30        -4.9510    1.3720   -3.3250 hc        1 MOL      0.043755
     71 H31        -6.2180    0.1360   -3.2790 hc        1 MOL      0.043755
     72 H32        -4.6830   -1.4430   -4.2010 hn        1 MOL      0.322821
     73 H33        -3.5090   -2.1840   -3.0660 hn        1 MOL      0.322821
     74 N8         -6.0650   -0.1610    0.7140 n         1 MOL     -0.165691
     75 C23        -6.3470   -1.1770    1.7800 c3        1 MOL     -0.100532
     76 C24        -5.3990   -2.3190    1.8970 c         1 MOL      0.508554
     77 O12        -5.7840   -3.3970    2.3340 o         1 MOL     -0.544088
     78 H34        -5.5910    0.6610    1.0400 hn        1 MOL      0.235557
     79 H35        -7.3540   -1.5750    1.6950 h1        1 MOL      0.073233
     80 H36        -6.2530   -0.6240    2.7120 h1        1 MOL      0.073233
     81 N9         -4.2250   -2.1970    1.3270 n         1 MOL     -0.126388
     82 C25        -3.2240   -3.3130    1.2170 c3        1 MOL     -0.399207
     83 C26        -1.8380   -2.6470    1.2580 c         1 MOL      0.824645
     84 O13        -1.5830   -1.6470    0.5180 o         1 MOL     -0.710400
     85 C27        -3.4610   -3.9650   -0.1720 c3        1 MOL      0.551397
     86 C28        -4.6700   -4.8960   -0.3530 ca        1 MOL     -0.514978
     87 C29        -5.7470   -4.4480   -1.1330 ca        1 MOL      0.101382
     88 C30        -4.8700   -6.0240    0.4630 ca        1 MOL      0.101382
     89 C31        -6.9450   -5.2240   -1.3020 ca        1 MOL     -0.229009
     90 C32        -5.9750   -6.8750    0.2250 ca        1 MOL     -0.229009
     91 C33        -7.0100   -6.5350   -0.6230 ca        1 MOL      0.227387
     92 O14        -8.1950   -7.1690   -0.6010 oh        1 MOL     -0.415382
     93 H37        -3.9110   -1.2440    1.1990 hn        1 MOL      0.145329
     94 H38        -3.3270   -4.1350    1.9320 h1        1 MOL      0.136674
     95 H39        -2.5730   -4.5000   -0.5250 hc        1 MOL     -0.041736
     96 H40        -3.4860   -3.1360   -0.8820 hc        1 MOL     -0.041736
     97 H41        -5.6110   -3.5320   -1.6920 ha        1 MOL      0.041860
     98 H42        -4.0610   -6.2880    1.1190 ha        1 MOL      0.041860
     99 H43        -7.7740   -4.7990   -1.8360 ha        1 MOL      0.128103
    100 H44        -5.9900   -7.7420    0.8730 ha        1 MOL      0.128103
    101 H45        -8.1640   -7.9120    0.0050 ho        1 MOL      0.340717
    102 N10        -0.8450   -3.1960    1.9600 n         1 MOL     -0.665844
    103 C34         0.6000   -2.7770    1.8320 c3        1 MOL     -0.107677
    104 C35         1.3630   -3.7460    0.8960 c         1 MOL      0.490183
    105 O15         1.3910   -4.9440    1.0840 o         1 MOL     -0.547741
    106 C36         1.2460   -2.5290    3.2290 c3        1 MOL      0.386166
    107 C37         0.4420   -1.6490    4.2080 c3        1 MOL      0.170367
    108 C38         2.5430   -1.9060    3.0940 c3        1 MOL     -0.479555
    109 C39         0.7890   -1.9110    5.7100 c3        1 MOL     -0.279612
    110 H46        -0.9770   -3.9810    2.5800 hn        1 MOL      0.345757
    111 H47         0.6120   -1.7570    1.4450 h1        1 MOL      0.187749
    112 H48         1.3750   -3.4540    3.7940 hc        1 MOL     -0.047002
    113 H49        -0.6090   -1.9320    4.1840 hc        1 MOL     -0.045903
    114 H50         0.4230   -0.6200    3.8530 hc        1 MOL     -0.045903
    115 H51         3.1170   -1.8730    4.0190 hc        1 MOL      0.094408
    116 H52         3.1020   -2.4870    2.3610 hc        1 MOL      0.094408
    117 H53         2.3320   -0.9120    2.6980 hc        1 MOL      0.094408
    118 H54         0.4660   -2.9260    5.9630 hc        1 MOL      0.061416
    119 H55         1.8600   -1.8320    5.9310 hc        1 MOL      0.061416
    120 H56         0.2670   -1.1600    6.2940 hc        1 MOL      0.061416
    121 N11         2.0610   -3.1750   -0.0760 n         1 MOL     -0.061875
    122 C40         2.9510   -3.8220   -1.0660 c3        1 MOL     -0.113423
    123 C41         4.4060   -3.8690   -0.5550 c         1 MOL      0.551568
    124 O16         4.7850   -3.1630    0.4390 o         1 MOL     -0.471396
    125 C42         2.8250   -3.1580   -2.4580 c3        1 MOL     -0.074517
    126 O17         3.2440   -1.8180   -2.3270 oh        1 MOL     -0.542174
    127 H57         2.0230   -2.1640   -0.0840 hn        1 MOL      0.077058
    128 H58         2.6570   -4.8670   -1.1520 h1        1 MOL      0.066846
    129 H59         1.8360   -3.0710   -2.8850 h1        1 MOL      0.093340
    130 H60         3.5180   -3.6080   -3.1700 h1        1 MOL      0.093340
    131 H61         2.6030   -1.2890   -1.8630 ho        1 MOL      0.397400
    132 N12         5.2100   -4.7280   -1.2270 n         1 MOL     -0.451295
    133 C43         6.6940   -4.8140   -1.0200 c3        1 MOL      0.040104
    134 C44         7.4740   -3.4870   -1.3840 c         1 MOL      0.483475
    135 O18         8.4150   -3.0510   -0.7360 o         1 MOL     -0.500934
    136 C45         7.2510   -6.0090   -1.8470 c3        1 MOL     -0.265309
    137 H62         4.8310   -5.0970   -2.0850 hn        1 MOL      0.285439
    138 H63         6.7960   -5.1080    0.0200 h1        1 MOL      0.123086
    139 H64         7.0280   -5.7850   -2.8980 hc        1 MOL      0.088536
    140 H65         8.3140   -6.1560   -1.6460 hc        1 MOL      0.088536
    141 H66         6.7090   -6.9110   -1.5760 hc        1 MOL      0.088536
    142 N13         7.0340   -2.7830   -2.3810 n         1 MOL     -0.440647
    143 C46         7.6220   -1.4540   -2.6700 c3        1 MOL      0.157555
    144 C47         7.3080   -0.4110   -1.5870 c         1 MOL      0.365840
    145 O19         8.1500    0.4380   -1.2410 o         1 MOL     -0.506576
    146 C48         7.1260   -0.9030   -4.0060 c3        1 MOL     -0.191955
    147 H67         6.2610   -3.1310   -2.9330 hn        1 MOL      0.325278
    148 H68         8.7070   -1.4820   -2.7280 h1        1 MOL      0.079381
    149 H69         7.7350   -0.0650   -4.3540 hc        1 MOL      0.045561
    150 H70         7.0010   -1.7240   -4.7130 hc        1 MOL      0.045561
    151 H71         6.0980   -0.6340   -3.7770 hc        1 MOL      0.045561
    152 N14         6.1380   -0.5770   -0.9600 n         1 MOL     -0.093194
    153 C49         5.8310    0.3390    0.2140 c3        1 MOL     -0.200837
    154 C50         6.5760    0.0150    1.5240 c         1 MOL      0.440390
    155 O20         6.8210    0.9340    2.3920 o         1 MOL     -0.560090
    156 C51         4.2810    0.3810    0.5390 c3        1 MOL      0.202401
    157 C52         3.3350    1.0430   -0.4890 c3        1 MOL      0.020004
    158 C53         1.8480    0.7530   -0.3710 c         1 MOL      0.912735
    159 O21         1.4330   -0.4020   -0.4750 o         1 MOL     -0.846348
    160 O22         0.9600    1.6340   -0.4510 o         1 MOL     -0.846348
    161 H72         5.5070   -1.3090   -1.2250 hn        1 MOL      0.181729
    162 H73         6.0870    1.3760   -0.0410 h1        1 MOL      0.121070
    163 H74         4.0310    0.7480    1.5350 hc        1 MOL     -0.018099
    164 H75         3.9900   -0.6680    0.5320 hc        1 MOL     -0.018099
    165 H76         3.6950    0.6470   -1.4360 hc        1 MOL     -0.078824
    166 H77         3.5220    2.1220   -0.4100 hc        1 MOL     -0.078824
    167 N15         7.0410   -1.2310    1.7540 n         1 MOL     -0.055446
    168 C54         7.9610   -1.6940    2.7330 c3        1 MOL     -0.283713
    169 H78         8.5580   -0.8570    3.0940 h1        1 MOL      0.112913
    170 H79         7.4140   -2.1360    3.5670 h1        1 MOL      0.112913
    171 H80         8.6170   -2.4430    2.2910 h1        1 MOL      0.112913
    172 H81         6.8280   -1.8680    1.0040 hn        1 MOL      0.104854
    173 Ca1        -1.1360    0.1120   -1.2590 Ca        1 MOL      1.800250
    174 O23         0.4840    0.6770   -3.4300 oh        1 MOL     -0.863057
    175 H82         1.3480    0.6340   -3.8590 ho        1 MOL      0.413113
    176 H83        -0.0770    1.1140   -4.0630 ho        1 MOL      0.413113
    177 O24        -1.1770   -2.3060   -2.7300 oh        1 MOL     -0.863057
    178 H84        -1.1040   -1.9730   -3.6250 ho        1 MOL      0.413113
    179 H85        -0.8180   -3.1970   -2.7830 ho        1 MOL      0.413113
@<TRIPOS>BOND
     1    1    2 1   
     2    1    4 1   
     3    1    5 1   
     4    1    6 1   
     5    2    3 2   
     6    2    7 1   
     7    7    8 1   
     8    7   15 1   
     9    8    9 1   
    10    8   11 1   
    11    8   16 1   
    12    9   10 2   
    13    9   19 1   
    14   11   12 1   
    15   11   17 1   
    16   11   18 1   
    17   12   13 1   
    18   12   14 1   
    19   19   20 1   
    20   19   28 1   
    21   20   21 1   
    22   20   23 1   
    23   20   29 1   
    24   21   22 2   
    25   21   41 1   
    26   23   24 1   
    27   23   30 1   
    28   23   31 1   
    29   24   25 1   
    30   24   32 1   
    31   24   33 1   
    32   25   26 1   
    33   25   34 1   
    34   25   35 1   
    35   26   27 1   
    36   26   36 1   
    37   26   37 1   
    38   27   38 1   
    39   27   39 1   
    40   27   40 1   
    41   41   42 1   
    42   41   49 1   
    43   42   43 1   
    44   42   45 1   
    45   42   50 1   
    46   43   44 2   
    47   43   53 1   
    48   45   46 1   
    49   45   51 1   
    50   45   52 1   
    51   46   47 1   
    52   46   48 1   
    53   53   54 1   
    54   53   57 1   
    55   54   55 1   
    56   54   58 1   
    57   54   59 1   
    58   55   56 2   
    59   55   60 1   
    60   60   61 1   
    61   60   68 1   
    62   61   62 1   
    63   61   64 1   
    64   61   69 1   
    65   62   63 2   
    66   62   74 1   
    67   64   65 1   
    68   64   70 1   
    69   64   71 1   
    70   65   66 1   
    71   65   67 2   
    72   66   72 1   
    73   66   73 1   
    74   74   75 1   
    75   74   78 1   
    76   75   76 1   
    77   75   79 1   
    78   75   80 1   
    79   76   77 2   
    80   76   81 1   
    81   81   82 1   
    82   81   93 1   
    83   82   83 1   
    84   82   85 1   
    85   82   94 1   
    86   83   84 2   
    87   83  102 1   
    88   85   86 1   
    89   85   95 1   
    90   85   96 1   
    91   86   87 ar  
    92   86   88 ar  
    93   87   89 ar  
    94   87   97 1   
    95   88   90 ar  
    96   88   98 1   
    97   89   91 ar  
    98   89   99 1   
    99   90   91 ar  
   100   90  100 1   
   101   91   92 1   
   102   92  101 1   
   103  102  103 1   
   104  102  110 1   
   105  103  104 1   
   106  103  106 1   
   107  103  111 1   
   108  104  105 2   
   109  104  121 1   
   110  106  107 1   
   111  106  108 1   
   112  106  112 1   
   113  107  109 1   
   114  107  113 1   
   115  107  114 1   
   116  108  115 1   
   117  108  116 1   
   118  108  117 1   
   119  109  118 1   
   120  109  119 1   
   121  109  120 1   
   122  121  122 1   
   123  121  127 1   
   124  122  123 1   
   125  122  125 1   
   126  122  128 1   
   127  123  124 2   
   128  123  132 1   
   129  125  126 1   
   130  125  129 1   
   131  125  130 1   
   132  126  131 1   
   133  132  133 1   
   134  132  137 1   
   135  133  134 1   
   136  133  136 1   
   137  133  138 1   
   138  134  135 2   
   139  134  142 1   
   140  136  139 1   
   141  136  140 1   
   142  136  141 1   
   143  142  143 1   
   144  142  147 1   
   145  143  144 1   
   146  143  146 1   
   147  143  148 1   
   148  144  145 2   
   149  144  152 1   
   150  146  149 1   
   151  146  150 1   
   152  146  151 1   
   153  152  153 1   
   154  152  161 1   
   155  153  154 1   
   156  153  156 1   
   157  153  162 1   
   158  154  155 2   
   159  154  167 1   
   160  156  157 1   
   161  156  163 1   
   162  156  164 1   
   163  157  158 1   
   164  157  165 1   
   165  157  166 1   
   166  158  159 1   
   167  158  160 1   
   168  167  168 1   
   169  167  172 1   
   170  168  169 1   
   171  168  170 1   
   172  168  171 1   
   173  174  175 1   
   174  174  176 1   
   175  177  178 1   
   176  177  179 1   
@<TRIPOS>SUBSTRUCTURE
     1 MOL         1 TEMP              0 ****  ****    0 ROOT
