@<TRIPOS>MOLECULE
MOL
  186   183     1     0     0
SMALL
resp


@<TRIPOS>ATOM
      1 C1          1.4370   -0.8260    6.7850 c3        1 MOL     -0.241198
      2 C2          1.5580   -1.1320    5.2680 c         1 MOL      0.772269
      3 O1          0.5180   -1.4530    4.6740 o         1 MOL     -0.613844
      4 H1          1.8910    0.1420    6.9970 hc        1 MOL      0.051837
      5 H2          0.3850   -0.8030    7.0690 hc        1 MOL      0.051837
      6 H3          1.9510   -1.6000    7.3550 hc        1 MOL      0.051837
      7 N1          2.6770   -0.9010    4.6040 n         1 MOL     -0.755644
      8 C3          2.9190   -1.1600    3.2410 c3        1 MOL      0.340174
      9 C4          3.2520   -2.5760    2.8810 c         1 MOL      0.587148
     10 O2          4.1840   -3.1090    3.5410 o         1 MOL     -0.594338
     11 C5          4.0010   -0.1990    2.9090 c3        1 MOL     -0.414118
     12 C6          4.5370   -0.1960    1.4570 c         1 MOL      0.924057
     13 O3          5.6930    0.3090    1.2760 o         1 MOL     -0.705146
     14 O4          3.8680   -0.7370    0.5690 o         1 MOL     -0.705146
     15 H4          3.3740   -0.4090    5.1510 hn        1 MOL      0.356050
     16 H5          2.0480   -0.8740    2.6440 h1        1 MOL      0.005423
     17 H6          4.8520   -0.2820    3.5880 hc        1 MOL      0.074889
     18 H7          3.5260    0.7790    2.9360 hc        1 MOL      0.074889
     19 N2          2.6070   -3.1830    1.8950 n         1 MOL     -0.312006
     20 C7          2.6640   -4.6390    1.6000 c3        1 MOL     -0.171026
     21 C8          3.8490   -4.9940    0.7020 c         1 MOL      0.548881
     22 O5          4.5220   -5.9900    0.9640 o         1 MOL     -0.586220
     23 C9          1.3350   -5.1950    1.0610 c3        1 MOL      0.278852
     24 C10         0.2160   -4.9060    1.9740 c3        1 MOL      0.023193
     25 C11         1.5650   -6.6840    0.9440 c3        1 MOL     -0.226134
     26 C12        -1.0660   -5.6530    1.5090 c3        1 MOL     -0.272430
     27 H8          1.9790   -2.5530    1.4170 hn        1 MOL      0.106265
     28 H9          2.7190   -5.2590    2.4970 h1        1 MOL      0.079946
     29 H10         1.1860   -4.7710    0.0700 hc        1 MOL     -0.001990
     30 H11         0.0560   -3.8310    2.0690 hc        1 MOL      0.002712
     31 H12         0.5040   -5.2450    2.9750 hc        1 MOL      0.002712
     32 H13         1.8010   -7.1890    1.8850 hc        1 MOL      0.043065
     33 H14         0.7350   -7.2340    0.4950 hc        1 MOL      0.043065
     34 H15         2.4060   -6.8950    0.2900 hc        1 MOL      0.043065
     35 H16        -1.1250   -5.6610    0.4220 hc        1 MOL      0.064947
     36 H17        -1.1350   -6.6220    2.0060 hc        1 MOL      0.064947
     37 H18        -1.9330   -5.1050    1.8640 hc        1 MOL      0.064947
     38 N3          4.0830   -4.1970   -0.3230 n         1 MOL     -0.337937
     39 C13         4.9870   -4.4640   -1.4790 c3        1 MOL     -0.053111
     40 C14         6.3420   -3.6780   -1.4800 c         1 MOL      0.468414
     41 O6          7.2110   -3.8630   -2.2530 o         1 MOL     -0.520273
     42 C15         4.2350   -4.3510   -2.8820 c3        1 MOL     -0.033051
     43 C16         3.3990   -3.1040   -3.1760 c         1 MOL      0.756283
     44 O7          3.4310   -2.1740   -2.3570 o         1 MOL     -0.715683
     45 O8          2.6660   -3.1190   -4.2050 o         1 MOL     -0.715683
     46 H19         3.5790   -3.3180   -0.3030 hn        1 MOL      0.269540
     47 H20         5.3660   -5.4750   -1.3150 h1        1 MOL      0.071963
     48 H21         3.6520   -5.2240   -3.1750 hc        1 MOL     -0.003207
     49 H22         5.0120   -4.4540   -3.6490 hc        1 MOL     -0.003207
     50 N4          6.4780   -2.6950   -0.5950 n         1 MOL     -0.106806
     51 C17         7.6950   -1.9010   -0.4150 c3        1 MOL     -0.187629
     52 C18         7.7370   -0.7310   -1.3740 c         1 MOL      0.509450
     53 O9          8.4900   -0.8520   -2.3500 o         1 MOL     -0.557860
     54 H23         5.6550   -2.5380   -0.0430 hn        1 MOL      0.130680
     55 H24         8.6170   -2.4690   -0.5730 h1        1 MOL      0.076854
     56 H25         7.7150   -1.5290    0.6080 h1        1 MOL      0.076854
     57 N5          6.9430    0.3220   -1.3010 n         1 MOL     -0.117320
     58 C19         7.0940    1.6240   -2.0310 c3        1 MOL     -0.004993
     59 C20         7.0880    2.7960   -1.1090 c         1 MOL      0.594939
     60 O10         7.2560    3.9390   -1.5050 o         1 MOL     -0.558729
     61 C21         6.0760    1.6590   -3.1420 c3        1 MOL     -0.176170
     62 C22         4.6700    1.3770   -2.7180 c         1 MOL      0.800166
     63 O11         3.9400    0.6500   -3.3660 o         1 MOL     -0.760190
     64 O12         4.2990    1.7470   -1.6320 o         1 MOL     -0.760190
     65 H26         6.3310    0.2940   -0.4900 hn        1 MOL     -0.032677
     66 H27         8.0900    1.5980   -2.4660 h1        1 MOL      0.037353
     67 H28         6.3140    0.9360   -3.9210 hc        1 MOL      0.044583
     68 H29         5.9850    2.6840   -3.5080 hc        1 MOL      0.044583
     69 N6          6.9060    2.5690    0.2210 n         1 MOL     -0.529369
     70 C23         6.7520    3.6170    1.2840 c3        1 MOL     -0.151102
     71 C24         5.4020    4.2390    1.4880 c         1 MOL      0.425532
     72 O13         5.1520    5.2450    2.1890 o         1 MOL     -0.603381
     73 H30         6.7000    1.6410    0.5740 hn        1 MOL      0.344072
     74 H31         7.5040    4.3840    1.1190 h1        1 MOL      0.119780
     75 H32         6.9690    3.0490    2.2010 h1        1 MOL      0.119780
     76 N7          4.4290    3.6630    0.8020 n         1 MOL     -0.110340
     77 C25         3.0270    4.1160    0.8460 c3        1 MOL      0.037612
     78 C26         2.0120    3.0020    0.8980 c         1 MOL      0.592587
     79 O14         2.2460    1.8630    0.6600 o         1 MOL     -0.626995
     80 C27         2.8030    5.0520   -0.2530 c3        1 MOL     -0.190203
     81 C28         3.7000    6.3010   -0.2950 c3        1 MOL     -0.064099
     82 C29         3.1900    7.4160   -1.1890 c         1 MOL      0.666948
     83 N8          3.8700    8.5480   -1.0880 n         1 MOL     -0.834538
     84 O15         2.2340    7.3760   -1.9590 o         1 MOL     -0.565943
     85 H33         4.5460    2.7890    0.3060 hn        1 MOL      0.205477
     86 H34         2.8710    4.6790    1.7560 h1        1 MOL      0.055841
     87 H35         1.7820    5.4120   -0.2160 hc        1 MOL      0.040716
     88 H36         3.0290    4.5200   -1.1810 hc        1 MOL      0.040716
     89 H37         4.7490    6.1360   -0.5240 hc        1 MOL      0.057049
     90 H38         3.7250    6.7330    0.7130 hc        1 MOL      0.057049
     91 H39         4.8010    8.4380   -0.7040 hn        1 MOL      0.356242
     92 H40         3.6100    9.3360   -1.6690 hn        1 MOL      0.356242
     93 N9          0.8200    3.4130    1.3050 n         1 MOL     -0.531175
     94 C30        -0.3550    2.5440    1.5940 c3        1 MOL      0.271825
     95 C31        -1.5230    2.9100    0.6920 c         1 MOL      0.331557
     96 O16        -2.0020    4.0470    0.7600 o         1 MOL     -0.517941
     97 C32        -0.7080    2.6190    3.1070 c3        1 MOL      0.115379
     98 C33        -1.9020    1.7500    3.4110 c3        1 MOL     -0.281444
     99 C34         0.4700    2.3050    4.0740 c3        1 MOL     -0.281444
    100 H41         0.6690    4.4080    1.2890 hn        1 MOL      0.302121
    101 H42        -0.0680    1.5100    1.3880 h1        1 MOL      0.043518
    102 H43        -1.0140    3.6500    3.2300 hc        1 MOL     -0.018486
    103 H44        -2.0560    1.6690    4.4930 hc        1 MOL      0.070054
    104 H45        -2.7640    2.2130    2.9460 hc        1 MOL      0.070054
    105 H46        -2.0010    0.7340    3.0340 hc        1 MOL      0.070054
    106 H47         0.7240    1.2660    3.8650 hc        1 MOL      0.070054
    107 H48         1.2960    2.9600    3.8090 hc        1 MOL      0.070054
    108 H49         0.1990    2.4150    5.1190 hc        1 MOL      0.070054
    109 N10        -1.8220    1.9640   -0.2640 n         1 MOL     -0.252780
    110 C35        -3.0010    2.1380   -1.1690 c3        1 MOL      0.265091
    111 C36        -4.3610    2.0140   -0.3780 c         1 MOL      0.186675
    112 O17        -4.3500    1.5600    0.7890 o         1 MOL     -0.237519
    113 C37        -2.9660    1.0350   -2.2150 c3        1 MOL     -0.152568
    114 C38        -3.8410    1.2590   -3.4750 c         1 MOL      0.593358
    115 N11        -3.7250    2.3350   -4.2420 n         1 MOL     -0.782464
    116 O18        -4.7260    0.4200   -3.7510 o         1 MOL     -0.517532
    117 H50        -1.2840    1.1160   -0.2280 hn        1 MOL      0.136886
    118 H51        -2.9170    3.0940   -1.6860 h1        1 MOL     -0.008984
    119 H52        -3.3960    0.1850   -1.6930 hc        1 MOL      0.077440
    120 H53        -1.9080    0.8670   -2.4460 hc        1 MOL      0.077440
    121 H54        -2.9230    2.9360   -4.1430 hn        1 MOL      0.371033
    122 H55        -4.4370    2.4400   -4.9480 hn        1 MOL      0.371033
    123 N12        -5.5150    2.3390   -1.0100 n         1 MOL     -0.417929
    124 C39        -6.8190    1.9930   -0.4120 c3        1 MOL      0.341968
    125 C40        -6.9640    0.4330   -0.2040 c         1 MOL      0.555378
    126 O19        -7.4810    0.0680    0.8460 o         1 MOL     -0.533520
    127 C41        -7.9170    2.4750   -1.3690 c3        1 MOL     -0.270036
    128 C42        -9.3640    2.2110   -0.7660 ca        1 MOL     -0.035763
    129 C43        -9.7220    2.6860    0.4940 ca        1 MOL     -0.078430
    130 C44       -10.3510    1.3980   -1.4540 ca        1 MOL     -0.078430
    131 C45       -11.0320    2.5390    0.9830 ca        1 MOL     -0.350842
    132 C46       -11.6650    1.2560   -0.9110 ca        1 MOL     -0.350842
    133 C47       -11.9800    1.7850    0.3160 ca        1 MOL      0.466011
    134 O20       -13.2890    1.6700    0.8240 oh        1 MOL     -0.558123
    135 H56        -5.5360    2.9380   -1.8150 hn        1 MOL      0.248357
    136 H57        -6.8810    2.4170    0.5840 h1        1 MOL      0.005326
    137 H58        -7.7630    2.1700   -2.4040 hc        1 MOL      0.088111
    138 H59        -7.8120    3.5650   -1.3710 hc        1 MOL      0.088111
    139 H60        -9.0510    3.3580    1.0000 ha        1 MOL      0.123675
    140 H61        -9.9680    0.8920   -2.3260 ha        1 MOL      0.123675
    141 H62       -11.2260    2.9870    1.9410 ha        1 MOL      0.162450
    142 H63       -12.3440    0.6010   -1.4340 ha        1 MOL      0.162450
    143 H64       -13.8790    1.1570    0.2640 ho        1 MOL      0.366732
    144 N13        -6.3150   -0.3870   -0.9840 n         1 MOL     -0.404972
    145 C48        -6.3170   -1.8420   -0.8880 c3        1 MOL     -0.002771
    146 C49        -5.4180   -2.3320    0.3060 c         1 MOL      0.250602
    147 O21        -5.7250   -3.2990    1.0430 o         1 MOL     -0.496472
    148 C50        -5.7180   -2.3870   -2.2670 c3        1 MOL      0.157961
    149 C51        -5.8950   -3.9540   -2.2740 c3        1 MOL     -0.337557
    150 C52        -5.9440   -4.6240   -3.6160 c         1 MOL      0.744807
    151 O22        -6.4310   -5.7740   -3.6170 o         1 MOL     -0.752010
    152 O23        -5.6640   -4.0430   -4.7330 o         1 MOL     -0.752010
    153 H65        -5.8190    0.0070   -1.7760 hn        1 MOL      0.184941
    154 H66        -7.3410   -2.2060   -0.8420 h1        1 MOL      0.116436
    155 H67        -4.6490   -2.1840   -2.3630 hc        1 MOL     -0.000340
    156 H68        -6.1850   -1.9450   -3.1420 hc        1 MOL     -0.000340
    157 H69        -6.8440   -4.1880   -1.7890 hc        1 MOL      0.069474
    158 H70        -5.0400   -4.3510   -1.7240 hc        1 MOL      0.069474
    159 N14        -4.3190   -1.6050    0.6410 n         1 MOL      0.061134
    160 C53        -3.4200   -1.9640    1.7770 c3        1 MOL     -0.094623
    161 C54        -3.9050   -1.2830    3.0720 c         1 MOL      0.448541
    162 O24        -3.7010   -1.8410    4.1660 o         1 MOL     -0.551353
    163 C55        -2.0120   -1.4690    1.3020 c3        1 MOL      0.037697
    164 C56        -1.5100   -2.2260    0.0920 c3        1 MOL     -0.180044
    165 C57        -0.1620   -1.6170   -0.3650 c         1 MOL      0.814486
    166 O25         0.9340   -2.2520   -0.4630 o         1 MOL     -0.737025
    167 O26        -0.1340   -0.4220   -0.6300 o         1 MOL     -0.737025
    168 H71        -4.2880   -0.6870    0.2300 hn        1 MOL     -0.072364
    169 H72        -3.3850   -3.0320    2.0060 h1        1 MOL      0.124073
    170 H73        -1.2940   -1.5160    2.1270 hc        1 MOL      0.056365
    171 H74        -2.0290   -0.3930    1.1430 hc        1 MOL      0.056365
    172 H75        -2.1160   -2.0190   -0.7940 hc        1 MOL      0.050091
    173 H76        -1.4530   -3.3040    0.2430 hc        1 MOL      0.050091
    174 N15        -4.7550   -0.2020    3.0110 n         1 MOL     -0.040297
    175 C58        -5.4820    0.3780    4.1240 c3        1 MOL     -0.218835
    176 H77        -4.8500    1.1080    4.6300 h1        1 MOL      0.076170
    177 H78        -6.3810    0.8720    3.7550 h1        1 MOL      0.076170
    178 H79        -5.7620   -0.4080    4.8260 h1        1 MOL      0.076170
    179 H80        -4.7780    0.3020    2.1260 hn        1 MOL      0.038678
    180 Ca1         2.3000   -0.0670   -1.3180 Ca        1 MOL      1.759852
    181 O27         0.5750   -0.9830   -3.4970 oh        1 MOL     -0.856353
    182 H81         1.0170   -1.0280   -4.3510 ho        1 MOL      0.409277
    183 H82        -0.3560   -1.0390   -3.7080 ho        1 MOL      0.409277
    184 O28         1.6850    2.4200   -2.5290 oh        1 MOL     -0.856353
    185 H83         1.6120    2.8780   -3.3720 ho        1 MOL      0.409277
    186 H84         2.5860    2.5720   -2.2540 ho        1 MOL      0.409277
@<TRIPOS>BOND
     1    1    2 1   
     2    1    4 1   
     3    1    5 1   
     4    1    6 1   
     5    2    3 2   
     6    2    7 1   
     7    7    8 1   
     8    7   15 1   
     9    8    9 1   
    10    8   11 1   
    11    8   16 1   
    12    9   10 2   
    13    9   19 1   
    14   11   12 1   
    15   11   17 1   
    16   11   18 1   
    17   12   13 1   
    18   12   14 1   
    19   19   20 1   
    20   19   27 1   
    21   20   21 1   
    22   20   23 1   
    23   20   28 1   
    24   21   22 2   
    25   21   38 1   
    26   23   24 1   
    27   23   25 1   
    28   23   29 1   
    29   24   26 1   
    30   24   30 1   
    31   24   31 1   
    32   25   32 1   
    33   25   33 1   
    34   25   34 1   
    35   26   35 1   
    36   26   36 1   
    37   26   37 1   
    38   38   39 1   
    39   38   46 1   
    40   39   40 1   
    41   39   42 1   
    42   39   47 1   
    43   40   41 2   
    44   40   50 1   
    45   42   43 1   
    46   42   48 1   
    47   42   49 1   
    48   43   44 1   
    49   43   45 1   
    50   50   51 1   
    51   50   54 1   
    52   51   52 1   
    53   51   55 1   
    54   51   56 1   
    55   52   53 2   
    56   52   57 1   
    57   57   58 1   
    58   57   65 1   
    59   58   59 1   
    60   58   61 1   
    61   58   66 1   
    62   59   60 2   
    63   59   69 1   
    64   61   62 1   
    65   61   67 1   
    66   61   68 1   
    67   62   63 1   
    68   62   64 1   
    69   69   70 1   
    70   69   73 1   
    71   70   71 1   
    72   70   74 1   
    73   70   75 1   
    74   71   72 2   
    75   71   76 1   
    76   76   77 1   
    77   76   85 1   
    78   77   78 1   
    79   77   80 1   
    80   77   86 1   
    81   78   79 2   
    82   78   93 1   
    83   80   81 1   
    84   80   87 1   
    85   80   88 1   
    86   81   82 1   
    87   81   89 1   
    88   81   90 1   
    89   82   83 1   
    90   82   84 2   
    91   83   91 1   
    92   83   92 1   
    93   93   94 1   
    94   93  100 1   
    95   94   95 1   
    96   94   97 1   
    97   94  101 1   
    98   95   96 2   
    99   95  109 1   
   100   97   98 1   
   101   97   99 1   
   102   97  102 1   
   103   98  103 1   
   104   98  104 1   
   105   98  105 1   
   106   99  106 1   
   107   99  107 1   
   108   99  108 1   
   109  109  110 1   
   110  109  117 1   
   111  110  111 1   
   112  110  113 1   
   113  110  118 1   
   114  111  112 2   
   115  111  123 1   
   116  113  114 1   
   117  113  119 1   
   118  113  120 1   
   119  114  115 1   
   120  114  116 2   
   121  115  121 1   
   122  115  122 1   
   123  123  124 1   
   124  123  135 1   
   125  124  125 1   
   126  124  127 1   
   127  124  136 1   
   128  125  126 2   
   129  125  144 1   
   130  127  128 1   
   131  127  137 1   
   132  127  138 1   
   133  128  129 ar  
   134  128  130 ar  
   135  129  131 ar  
   136  129  139 1   
   137  130  132 ar  
   138  130  140 1   
   139  131  133 ar  
   140  131  141 1   
   141  132  133 ar  
   142  132  142 1   
   143  133  134 1   
   144  134  143 1   
   145  144  145 1   
   146  144  153 1   
   147  145  146 1   
   148  145  148 1   
   149  145  154 1   
   150  146  147 2   
   151  146  159 1   
   152  148  149 1   
   153  148  155 1   
   154  148  156 1   
   155  149  150 1   
   156  149  157 1   
   157  149  158 1   
   158  150  151 1   
   159  150  152 1   
   160  159  160 1   
   161  159  168 1   
   162  160  161 1   
   163  160  163 1   
   164  160  169 1   
   165  161  162 2   
   166  161  174 1   
   167  163  164 1   
   168  163  170 1   
   169  163  171 1   
   170  164  165 1   
   171  164  172 1   
   172  164  173 1   
   173  165  166 1   
   174  165  167 1   
   175  174  175 1   
   176  174  179 1   
   177  175  176 1   
   178  175  177 1   
   179  175  178 1   
   180  181  182 1   
   181  181  183 1   
   182  184  185 1   
   183  184  186 1   
@<TRIPOS>SUBSTRUCTURE
     1 MOL         1 TEMP              0 ****  ****    0 ROOT
