@<TRIPOS>MOLECULE
MOL
  175   173     1     0     0
SMALL
resp


@<TRIPOS>ATOM
      1 C1          0.1630    4.0780    5.7650 c3        1 MOL     -0.404477
      2 C2         -0.3550    4.1350    4.3030 c         1 MOL      0.675202
      3 O1          0.4410    4.3140    3.3980 o         1 MOL     -0.530262
      4 H1          0.7670    3.1820    5.9010 hc        1 MOL      0.096911
      5 H2          0.7720    4.9600    5.9690 hc        1 MOL      0.096911
      6 H3         -0.6840    4.0530    6.4510 hc        1 MOL      0.096911
      7 N1         -1.6390    3.8830    4.0740 n         1 MOL     -0.571897
      8 C3         -2.1460    3.4710    2.7200 c3        1 MOL      0.025424
      9 C4         -2.1180    4.7070    1.8120 c         1 MOL      0.618911
     10 O2         -2.0430    5.8270    2.2960 o         1 MOL     -0.553422
     11 C5         -3.6430    3.0210    2.8740 c3        1 MOL     -0.305715
     12 C6         -4.2550    2.2390    1.6930 c         1 MOL      0.793395
     13 O3         -5.3540    1.7160    1.9330 o         1 MOL     -0.675433
     14 O4         -3.5690    2.0270    0.6330 o         1 MOL     -0.675433
     15 H4         -2.2180    3.7410    4.8900 hn        1 MOL      0.323020
     16 H5         -1.5310    2.6650    2.3220 h1        1 MOL      0.103989
     17 H6         -4.2530    3.9130    3.0460 hc        1 MOL      0.073759
     18 H7         -3.7270    2.4260    3.7840 hc        1 MOL      0.073759
     19 N2         -2.3570    4.4840    0.5120 n         1 MOL     -0.516215
     20 C7         -2.5710    5.4880   -0.5360 c3        1 MOL      0.169764
     21 C8         -3.5140    5.1120   -1.6570 c         1 MOL      0.388013
     22 O5         -3.9390    6.0010   -2.4680 o         1 MOL     -0.549789
     23 C9         -1.1230    5.7170   -1.0840 c3        1 MOL     -0.132189
     24 H8         -2.3920    3.5150    0.2400 hn        1 MOL      0.361323
     25 H9         -2.8430    6.4420   -0.0890 h1        1 MOL      0.037164
     26 H10        -0.6630    4.7840   -1.4080 hc        1 MOL      0.036870
     27 H11        -1.0950    6.4600   -1.8750 hc        1 MOL      0.036870
     28 H12        -0.4950    6.0140   -0.2330 hc        1 MOL      0.036870
     29 N3         -3.9320    3.8060   -1.7210 n         1 MOL     -0.106567
     30 C10        -4.8070    3.3260   -2.8040 c3        1 MOL     -0.035854
     31 C11        -5.9870    2.4470   -2.4130 c         1 MOL      0.533892
     32 O6         -6.8300    2.1590   -3.2430 o         1 MOL     -0.557235
     33 C12        -3.9960    2.5930   -3.8780 c3        1 MOL     -0.071644
     34 C13        -3.1030    1.5020   -3.4270 c         1 MOL      0.693891
     35 O7         -2.1750    1.1760   -4.1860 o         1 MOL     -0.694849
     36 O8         -3.3080    0.8410   -2.3740 o         1 MOL     -0.694849
     37 H13        -3.7870    3.2220   -0.9140 hn        1 MOL     -0.046950
     38 H14        -5.3390    4.1980   -3.1890 h1        1 MOL      0.060550
     39 H15        -3.3060    3.3420   -4.2840 hc        1 MOL      0.019323
     40 H16        -4.6650    2.3210   -4.7080 hc        1 MOL      0.019323
     41 N4         -6.0130    1.9860   -1.1600 n         1 MOL     -0.337977
     42 C14        -7.1750    1.2310   -0.6540 c3        1 MOL     -0.366385
     43 C15        -7.2990   -0.2410   -0.9390 c         1 MOL      0.600320
     44 O9         -8.2320   -0.9030   -0.4230 o         1 MOL     -0.613598
     45 H17        -5.3440    2.3310   -0.4850 hn        1 MOL      0.276099
     46 H18        -8.0780    1.7000   -1.0420 h1        1 MOL      0.164517
     47 H19        -7.1500    1.2180    0.4400 h1        1 MOL      0.164517
     48 N5         -6.3420   -0.7970   -1.7140 n         1 MOL     -0.382804
     49 C16        -6.2350   -2.2080   -2.1410 c3        1 MOL      0.101409
     50 C17        -6.1590   -3.2760   -1.0510 c         1 MOL      0.414653
     51 O10        -6.1180   -4.4790   -1.3850 o         1 MOL     -0.542439
     52 C18        -5.0890   -2.3260   -3.1390 c3        1 MOL     -0.191571
     53 C19        -3.6990   -2.1040   -2.6010 c         1 MOL      0.750878
     54 N6         -2.7170   -2.3350   -3.3490 n         1 MOL     -0.519816
     55 O11        -3.5210   -1.8890   -1.4380 o         1 MOL     -0.929444
     56 H20        -5.7350   -0.1130   -2.1520 hn        1 MOL      0.277191
     57 H21        -7.1530   -2.4330   -2.6900 h1        1 MOL      0.061762
     58 H22        -5.1850   -1.5890   -3.9380 hc        1 MOL      0.048118
     59 H23        -5.1020   -3.3180   -3.5990 hc        1 MOL      0.048118
     60 H24        -2.8450   -2.5290   -4.3320 hn        1 MOL      0.293833
     61 H25        -1.8070   -2.3780   -2.9200 hn        1 MOL      0.293833
     62 N7         -6.0750   -2.8720    0.2090 n         1 MOL     -0.135488
     63 C20        -6.0350   -3.7220    1.4310 c3        1 MOL     -0.234628
     64 C21        -4.7030   -4.5490    1.6080 c         1 MOL      0.581323
     65 O12        -4.6900   -5.3810    2.5130 o         1 MOL     -0.583350
     66 H26        -5.8630   -1.9030    0.3990 hn        1 MOL      0.233957
     67 H27        -6.8210   -4.4790    1.4390 h1        1 MOL      0.101480
     68 H28        -6.1080   -2.9880    2.2370 h1        1 MOL      0.101480
     69 N8         -3.6150   -4.1360    0.9910 n         1 MOL     -0.369915
     70 C22        -2.2380   -4.5880    1.2890 c3        1 MOL      0.108019
     71 C23        -1.2160   -3.4690    1.5890 c         1 MOL      0.196137
     72 O13        -1.3700   -2.3200    1.1360 o         1 MOL     -0.425936
     73 C24        -1.6250   -5.4560    0.1730 c3        1 MOL      0.459303
     74 C25        -2.2630   -6.8770    0.1590 c3        1 MOL     -0.652303
     75 O14        -1.8350   -4.8620   -1.0820 oh        1 MOL     -0.582635
     76 H29        -3.6420   -3.3570    0.3430 hn        1 MOL      0.365692
     77 H30        -2.2200   -5.1950    2.1980 h1        1 MOL      0.025703
     78 H31        -0.5640   -5.5130    0.4070 h1        1 MOL     -0.015185
     79 H32        -1.1500   -4.2460   -1.3710 ho        1 MOL      0.346146
     80 H33        -2.2300   -7.2940    1.1590 hc        1 MOL      0.166285
     81 H34        -3.2640   -6.8600   -0.2920 hc        1 MOL      0.166285
     82 H35        -1.5010   -7.3330   -0.4850 hc        1 MOL      0.166285
     83 N9         -0.1090   -3.7660    2.2400 n         1 MOL     -0.160206
     84 C26         1.1290   -2.9760    2.2700 c3        1 MOL      0.016107
     85 C27         1.8750   -3.1750    0.9170 c         1 MOL      0.365800
     86 O15         2.2700   -4.3250    0.5880 o         1 MOL     -0.554023
     87 C28         1.9510   -3.4410    3.5010 c3        1 MOL      0.019982
     88 C29         1.2150   -3.5020    4.8430 c3        1 MOL     -0.124065
     89 C30         3.2430   -2.5140    3.5250 c3        1 MOL     -0.056197
     90 C31         0.8400   -2.1350    5.4760 c3        1 MOL     -0.387856
     91 H36         0.0220   -4.7500    2.4070 hn        1 MOL      0.191005
     92 H37         0.9080   -1.9080    2.2710 h1        1 MOL      0.115723
     93 H38         2.2590   -4.4820    3.3880 hc        1 MOL      0.006376
     94 H39         1.8310   -3.9590    5.6160 hc        1 MOL      0.062832
     95 H40         0.2770   -4.0480    4.7410 hc        1 MOL      0.062832
     96 H41         2.9270   -1.4760    3.6650 hc        1 MOL      0.017528
     97 H42         3.9180   -2.7340    4.3480 hc        1 MOL      0.017528
     98 H43         3.8310   -2.5180    2.6060 hc        1 MOL      0.017528
     99 H44         0.2790   -1.4930    4.8060 hc        1 MOL      0.103222
    100 H45         0.3570   -2.3320    6.4320 hc        1 MOL      0.103222
    101 H46         1.7480   -1.6230    5.8020 hc        1 MOL      0.103222
    102 N10         1.8620   -2.1390    0.0790 n         1 MOL     -0.256974
    103 C32         2.7560   -2.1170   -1.0730 c3        1 MOL      0.172346
    104 C33         4.1290   -1.4860   -0.7480 c         1 MOL      0.520425
    105 O16         4.3530   -0.9180    0.3260 o         1 MOL     -0.416457
    106 C34         2.0340   -1.3010   -2.1410 c3        1 MOL     -0.292518
    107 C35         0.5580   -1.5930   -2.3040 c         1 MOL      0.700576
    108 O17        -0.2810   -0.9140   -1.6070 o         1 MOL     -0.653202
    109 O18         0.1470   -2.4190   -3.1500 o         1 MOL     -0.653202
    110 H47         1.2520   -1.3600    0.2760 hn        1 MOL      0.285928
    111 H48         2.8610   -3.1560   -1.3930 h1        1 MOL      0.041173
    112 H49         2.4410   -1.6320   -3.0950 hc        1 MOL      0.081163
    113 H50         2.2920   -0.2680   -1.9240 hc        1 MOL      0.081163
    114 N11         5.0780   -1.6280   -1.6650 n         1 MOL     -0.820881
    115 C36         6.4280   -1.1820   -1.4920 c3        1 MOL      0.762813
    116 C37         6.5870    0.2810   -1.2120 c         1 MOL      0.189314
    117 O19         7.3190    0.6150   -0.2530 o         1 MOL     -0.475156
    118 C38         7.4040   -1.7840   -2.5040 c3        1 MOL     -0.217187
    119 C39         8.8830   -1.5830   -2.2980 ca        1 MOL      0.027025
    120 C40         9.5290   -1.9590   -1.0710 ca        1 MOL     -0.101735
    121 C41         9.6780   -0.9810   -3.3120 ca        1 MOL     -0.101735
    122 C42        10.8760   -1.5710   -0.8380 ca        1 MOL     -0.193264
    123 C43        11.0420   -0.7200   -3.1400 ca        1 MOL     -0.193264
    124 C44        11.5890   -0.8930   -1.8970 ca        1 MOL     -0.007661
    125 H51         4.8400   -2.0950   -2.5250 hn        1 MOL      0.333025
    126 H52         6.8330   -1.6780   -0.6070 h1        1 MOL     -0.038266
    127 H53         7.1270   -1.2660   -3.4230 hc        1 MOL      0.044287
    128 H54         7.1780   -2.8470   -2.5660 hc        1 MOL      0.044287
    129 H55         8.9340   -2.5640   -0.4060 ha        1 MOL      0.107434
    130 H56         9.2620   -0.8310   -4.2890 ha        1 MOL      0.107434
    131 H57        11.3010   -1.9240    0.0830 ha        1 MOL      0.132438
    132 H58        11.5610   -0.2220   -3.9420 ha        1 MOL      0.132438
    133 H59        12.6230   -0.5930   -1.7800 ha        1 MOL      0.072746
    134 N12         5.8040    1.2390   -1.8530 n         1 MOL     -0.127663
    135 C45         5.7710    2.6740   -1.5650 c3        1 MOL      0.063431
    136 C46         5.3260    2.8970   -0.1080 c         1 MOL      0.292606
    137 O20         5.7100    3.9260    0.4190 o         1 MOL     -0.513536
    138 C47         4.8000    3.2630   -2.5890 c3        1 MOL     -0.152670
    139 C48         4.9690    2.3380   -3.7810 c3        1 MOL      0.071611
    140 C49         5.1230    0.9590   -3.1610 c3        1 MOL      0.007704
    141 H60         6.7550    3.0890   -1.7680 h1        1 MOL      0.063674
    142 H61         3.7630    3.1590   -2.2640 hc        1 MOL      0.071717
    143 H62         5.0310    4.3070   -2.7490 hc        1 MOL      0.071717
    144 H63         4.1280    2.3690   -4.4730 hc        1 MOL      0.005776
    145 H64         5.8390    2.5700   -4.3920 hc        1 MOL      0.005776
    146 H65         4.1960    0.4260   -2.9700 h1        1 MOL      0.002318
    147 H66         5.6830    0.3530   -3.8720 h1        1 MOL      0.002318
    148 N13         4.6160    1.9780    0.4970 n         1 MOL     -0.044542
    149 C50         3.9090    2.1270    1.7810 c3        1 MOL     -0.200110
    150 C51         4.7810    1.6510    2.9740 c         1 MOL      0.486252
    151 O21         4.8310    2.2320    4.0580 o         1 MOL     -0.562476
    152 C52         2.4790    1.5110    1.6480 c3        1 MOL      0.143068
    153 C53         1.6160    2.1700    0.6110 c3        1 MOL     -0.031467
    154 C54         0.2290    1.5250    0.4940 c         1 MOL      0.418204
    155 O22        -0.0660    0.4620    1.0770 o         1 MOL     -0.661952
    156 O23        -0.4900    1.9540   -0.4740 o         1 MOL     -0.661952
    157 H67         4.4230    1.1670   -0.0770 hn        1 MOL      0.147802
    158 H68         3.7540    3.2050    1.9060 h1        1 MOL      0.127808
    159 H69         1.9050    1.7440    2.5430 hc        1 MOL     -0.037646
    160 H70         2.4810    0.4390    1.4940 hc        1 MOL     -0.037646
    161 H71         2.0550    2.0550   -0.3850 hc        1 MOL      0.056443
    162 H72         1.5590    3.2520    0.7490 hc        1 MOL      0.056443
    163 N14         5.5520    0.5960    2.7190 n         1 MOL     -0.089615
    164 C55         6.6350   -0.0030    3.5380 c3        1 MOL     -0.156654
    165 H73         6.3210   -0.9830    3.8940 h1        1 MOL      0.071814
    166 H74         7.5340   -0.1080    2.9300 h1        1 MOL      0.071814
    167 H75         6.8460    0.6430    4.3910 h1        1 MOL      0.071814
    168 H76         5.3170    0.1480    1.8470 hn        1 MOL      0.076174
    169 Ca1        -2.2520    0.0210   -0.3130 Ca        1 MOL      1.695562
    170 O24        -4.1090   -0.6610    1.5020 oh        1 MOL     -0.816144
    171 H77        -3.5290   -0.6840    2.2680 ho        1 MOL      0.403542
    172 H78        -4.6360    0.1290    1.6280 ho        1 MOL      0.403542
    173 O25        -2.0020   -0.1230    2.9340 oh        1 MOL     -0.816144
    174 H79        -1.9380    0.1310    3.8540 ho        1 MOL      0.403542
    175 H80        -1.1420    0.0570    2.5660 ho        1 MOL      0.403542
@<TRIPOS>BOND
     1    1    2 1   
     2    1    4 1   
     3    1    5 1   
     4    1    6 1   
     5    2    3 2   
     6    2    7 1   
     7    7    8 1   
     8    7   15 1   
     9    8    9 1   
    10    8   11 1   
    11    8   16 1   
    12    9   10 2   
    13    9   19 1   
    14   11   12 1   
    15   11   17 1   
    16   11   18 1   
    17   12   13 1   
    18   12   14 1   
    19   19   20 1   
    20   19   24 1   
    21   20   21 1   
    22   20   23 1   
    23   20   25 1   
    24   21   22 2   
    25   21   29 1   
    26   23   26 1   
    27   23   27 1   
    28   23   28 1   
    29   29   30 1   
    30   29   37 1   
    31   30   31 1   
    32   30   33 1   
    33   30   38 1   
    34   31   32 2   
    35   31   41 1   
    36   33   34 1   
    37   33   39 1   
    38   33   40 1   
    39   34   35 1   
    40   34   36 1   
    41   41   42 1   
    42   41   45 1   
    43   42   43 1   
    44   42   46 1   
    45   42   47 1   
    46   43   44 2   
    47   43   48 1   
    48   48   49 1   
    49   48   56 1   
    50   49   50 1   
    51   49   52 1   
    52   49   57 1   
    53   50   51 2   
    54   50   62 1   
    55   52   53 1   
    56   52   58 1   
    57   52   59 1   
    58   53   54 1   
    59   53   55 2   
    60   54   60 1   
    61   54   61 1   
    62   62   63 1   
    63   62   66 1   
    64   63   64 1   
    65   63   67 1   
    66   63   68 1   
    67   64   65 2   
    68   64   69 1   
    69   69   70 1   
    70   69   76 1   
    71   70   71 1   
    72   70   73 1   
    73   70   77 1   
    74   71   72 2   
    75   71   83 1   
    76   73   74 1   
    77   73   75 1   
    78   73   78 1   
    79   74   80 1   
    80   74   81 1   
    81   74   82 1   
    82   75   79 1   
    83   83   84 1   
    84   83   91 1   
    85   84   85 1   
    86   84   87 1   
    87   84   92 1   
    88   85   86 2   
    89   85  102 1   
    90   87   88 1   
    91   87   89 1   
    92   87   93 1   
    93   88   90 1   
    94   88   94 1   
    95   88   95 1   
    96   89   96 1   
    97   89   97 1   
    98   89   98 1   
    99   90   99 1   
   100   90  100 1   
   101   90  101 1   
   102  102  103 1   
   103  102  110 1   
   104  103  104 1   
   105  103  106 1   
   106  103  111 1   
   107  104  105 2   
   108  104  114 1   
   109  106  107 1   
   110  106  112 1   
   111  106  113 1   
   112  107  108 1   
   113  107  109 1   
   114  114  115 1   
   115  114  125 1   
   116  115  116 1   
   117  115  118 1   
   118  115  126 1   
   119  116  117 2   
   120  116  134 1   
   121  118  119 1   
   122  118  127 1   
   123  118  128 1   
   124  119  120 ar  
   125  119  121 ar  
   126  120  122 ar  
   127  120  129 1   
   128  121  123 ar  
   129  121  130 1   
   130  122  124 ar  
   131  122  131 1   
   132  123  124 ar  
   133  123  132 1   
   134  124  133 1   
   135  134  135 1   
   136  134  140 1   
   137  135  136 1   
   138  135  138 1   
   139  135  141 1   
   140  136  137 2   
   141  136  148 1   
   142  138  139 1   
   143  138  142 1   
   144  138  143 1   
   145  139  140 1   
   146  139  144 1   
   147  139  145 1   
   148  140  146 1   
   149  140  147 1   
   150  148  149 1   
   151  148  157 1   
   152  149  150 1   
   153  149  152 1   
   154  149  158 1   
   155  150  151 2   
   156  150  163 1   
   157  152  153 1   
   158  152  159 1   
   159  152  160 1   
   160  153  154 1   
   161  153  161 1   
   162  153  162 1   
   163  154  155 1   
   164  154  156 1   
   165  163  164 1   
   166  163  168 1   
   167  164  165 1   
   168  164  166 1   
   169  164  167 1   
   170  170  171 1   
   171  170  172 1   
   172  173  174 1   
   173  173  175 1   
@<TRIPOS>SUBSTRUCTURE
     1 MOL         1 TEMP              0 ****  ****    0 ROOT
