@<TRIPOS>MOLECULE
MOL
  175   173     1     0     0
SMALL
resp


@<TRIPOS>ATOM
      1 C1          0.1730    5.3940    5.2190 c3        1 MOL     -0.392944
      2 C2         -0.4020    5.0590    3.7990 c         1 MOL      0.755621
      3 O1          0.2510    5.3820    2.8230 o         1 MOL     -0.547635
      4 H1         -0.4200    6.1890    5.6720 hc        1 MOL      0.094266
      5 H2          0.1280    4.5050    5.8490 hc        1 MOL      0.094266
      6 H3          1.2080    5.7220    5.1250 hc        1 MOL      0.094266
      7 N1         -1.6050    4.4360    3.6500 n         1 MOL     -0.777553
      8 C3         -2.0530    3.7640    2.4520 c3        1 MOL      0.423543
      9 C4         -2.1520    4.8230    1.3820 c         1 MOL      0.759482
     10 O2         -2.5570    5.9570    1.6950 o         1 MOL     -0.627623
     11 C5         -3.4390    3.0780    2.6620 c3        1 MOL     -0.499762
     12 C6         -4.2280    2.4810    1.4720 c         1 MOL      0.793805
     13 O3         -5.5070    2.3910    1.5180 o         1 MOL     -0.672928
     14 O4         -3.6880    2.0500    0.3980 o         1 MOL     -0.672928
     15 H4         -2.2100    4.3680    4.4520 hn        1 MOL      0.345206
     16 H5         -1.3710    2.9970    2.0920 h1        1 MOL     -0.065621
     17 H6         -4.0830    3.8920    2.9860 hc        1 MOL      0.098740
     18 H7         -3.3160    2.4070    3.5170 hc        1 MOL      0.098740
     19 N2         -2.0070    4.4290    0.1640 n         1 MOL     -0.910971
     20 C7         -2.0630    5.3050   -1.0150 c3        1 MOL      0.474617
     21 C8         -2.8110    4.7080   -2.2620 c         1 MOL      0.335978
     22 O5         -2.6200    5.1890   -3.4020 o         1 MOL     -0.526325
     23 C9         -0.6250    5.7820   -1.3530 c3        1 MOL     -0.270346
     24 H8         -1.8960    3.4280    0.0530 hn        1 MOL      0.504347
     25 H9         -2.5040    6.2720   -0.7970 h1        1 MOL     -0.007340
     26 H10        -0.2720    6.3480   -0.4960 hc        1 MOL      0.063574
     27 H11         0.0370    4.9460   -1.5870 hc        1 MOL      0.063574
     28 H12        -0.7320    6.4620   -2.1930 hc        1 MOL      0.063574
     29 N3         -3.6150    3.6120   -2.1590 n         1 MOL     -0.325508
     30 C10        -4.4500    3.1510   -3.2260 c3        1 MOL      0.094794
     31 C11        -5.8210    2.5550   -2.9140 c         1 MOL      0.346540
     32 O6         -6.7000    2.4120   -3.7530 o         1 MOL     -0.541313
     33 C12        -3.6280    2.0290   -3.9670 c3        1 MOL     -0.064442
     34 C13        -3.0340    1.0170   -2.9660 c         1 MOL      0.605482
     35 O7         -3.8460    0.4050   -2.2380 o         1 MOL     -0.649852
     36 O8         -1.8650    0.8370   -2.8530 o         1 MOL     -0.649852
     37 H13        -3.6450    3.1300   -1.2720 hn        1 MOL      0.196840
     38 H14        -4.6750    3.8700   -4.0030 h1        1 MOL      0.063543
     39 H15        -2.8120    2.5240   -4.5000 hc        1 MOL      0.020434
     40 H16        -4.2040    1.5740   -4.7710 hc        1 MOL      0.020434
     41 N4         -5.9690    1.9930   -1.6870 n         1 MOL     -0.132410
     42 C14        -7.1760    1.3260   -1.2260 c3        1 MOL     -0.247866
     43 C15        -7.3510   -0.2310   -1.3680 c         1 MOL      0.577969
     44 O9         -8.3860   -0.7470   -0.9850 o         1 MOL     -0.617332
     45 H17        -5.1750    2.1220   -1.0700 hn        1 MOL      0.145145
     46 H18        -8.0420    1.6370   -1.8070 h1        1 MOL      0.113956
     47 H19        -7.4610    1.5860   -0.2000 h1        1 MOL      0.113956
     48 N5         -6.2300   -0.9020   -1.6980 n         1 MOL     -0.326216
     49 C16        -6.1690   -2.3700   -1.8510 c3        1 MOL     -0.036799
     50 C17        -6.0830   -3.2700   -0.6470 c         1 MOL      0.438866
     51 O10        -6.0090   -4.4770   -0.7890 o         1 MOL     -0.527793
     52 C18        -5.0510   -2.6770   -2.9220 c3        1 MOL     -0.189774
     53 C19        -3.6410   -2.6260   -2.3860 c         1 MOL      0.430383
     54 N6         -2.6960   -2.4780   -3.2230 n         1 MOL     -0.494971
     55 O11        -3.4110   -2.5170   -1.1560 o         1 MOL     -0.440822
     56 H20        -5.3850   -0.3750   -1.8800 hn        1 MOL      0.242842
     57 H21        -7.0830   -2.6650   -2.3870 h1        1 MOL      0.109634
     58 H22        -5.2660   -2.0630   -3.8070 hc        1 MOL      0.072391
     59 H23        -5.2970   -3.6860   -3.2640 hc        1 MOL      0.072391
     60 H24        -2.9310   -2.4490   -4.2020 hn        1 MOL      0.302081
     61 H25        -1.7460   -2.3170   -2.9430 hn        1 MOL      0.302081
     62 N7         -6.2490   -2.6970    0.5600 n         1 MOL     -0.215275
     63 C20        -6.2430   -3.4420    1.8040 c3        1 MOL     -0.240186
     64 C21        -4.9720   -3.9340    2.3790 c         1 MOL      0.514285
     65 O12        -4.9020   -4.5370    3.4870 o         1 MOL     -0.588735
     66 H26        -6.2260   -1.6900    0.6430 hn        1 MOL      0.264880
     67 H27        -6.9340   -4.2660    1.6660 h1        1 MOL      0.121833
     68 H28        -6.7620   -2.7910    2.5150 h1        1 MOL      0.121833
     69 N8         -3.7970   -3.7420    1.7240 n         1 MOL      0.064642
     70 C22        -2.4790   -4.3790    2.0120 c3        1 MOL     -0.558162
     71 C23        -1.4760   -3.3190    1.9170 c         1 MOL      0.832962
     72 O13        -1.6330   -2.3450    1.1640 o         1 MOL     -0.682359
     73 C24        -2.1860   -5.5160    1.0160 c3        1 MOL      0.557137
     74 C25        -3.1710   -6.6940    1.3560 c3        1 MOL     -0.382900
     75 O14        -2.4000   -5.0850   -0.3370 oh        1 MOL     -0.641377
     76 H29        -3.7620   -3.0680    0.9790 hn        1 MOL     -0.038053
     77 H30        -2.4010   -4.8200    2.9970 h1        1 MOL      0.171660
     78 H31        -1.1890   -5.9450    1.0350 h1        1 MOL      0.009923
     79 H32        -3.1970   -4.5350   -0.3510 ho        1 MOL      0.413645
     80 H33        -4.1590   -6.2370    1.2790 hc        1 MOL      0.084247
     81 H34        -3.0740   -7.4040    0.5320 hc        1 MOL      0.084247
     82 H35        -2.8400   -7.2020    2.2560 hc        1 MOL      0.084247
     83 N9         -0.3050   -3.4830    2.6130 n         1 MOL     -0.646826
     84 C26         0.8530   -2.5870    2.4340 c3        1 MOL      0.272778
     85 C27         1.7980   -3.0150    1.2960 c         1 MOL      0.574158
     86 O15         2.4000   -4.0840    1.3400 o         1 MOL     -0.605798
     87 C28         1.5280   -2.2960    3.8010 c3        1 MOL     -0.021194
     88 C29         0.8350   -1.0000    4.4360 c3        1 MOL      0.185062
     89 C30         3.0330   -2.2660    3.8250 c3        1 MOL     -0.151118
     90 C31         1.1820   -0.7530    5.9070 c3        1 MOL     -0.385113
     91 H36        -0.2340   -4.3340    3.1480 hn        1 MOL      0.290411
     92 H37         0.3660   -1.6620    2.1000 h1        1 MOL     -0.119713
     93 H38         1.2070   -3.0210    4.5460 hc        1 MOL      0.029715
     94 H39        -0.2470   -1.0250    4.3150 hc        1 MOL     -0.024824
     95 H40         1.1330   -0.1100    3.8760 hc        1 MOL     -0.024824
     96 H41         3.4190   -3.1490    3.3170 hc        1 MOL      0.034226
     97 H42         3.4420   -1.3230    3.4700 hc        1 MOL      0.034226
     98 H43         3.4380   -2.2790    4.8290 hc        1 MOL      0.034226
     99 H44         2.2160   -0.4290    5.9860 hc        1 MOL      0.087501
    100 H45         0.7250    0.1750    6.2540 hc        1 MOL      0.087501
    101 H46         0.8810   -1.5890    6.5370 hc        1 MOL      0.087501
    102 N10         1.8500   -2.1880    0.2340 n         1 MOL     -0.485580
    103 C32         2.7130   -2.3950   -0.9880 c3        1 MOL      0.183691
    104 C33         4.0540   -1.7520   -0.6920 c         1 MOL      0.643611
    105 O16         4.1620   -0.9250    0.1920 o         1 MOL     -0.534273
    106 C34         2.0450   -1.7890   -2.2270 c3        1 MOL     -0.259689
    107 C35         0.5460   -2.0560   -2.5570 c         1 MOL      0.700521
    108 O17        -0.3000   -1.5500   -1.7970 o         1 MOL     -0.675709
    109 O18         0.1940   -2.6980   -3.5930 o         1 MOL     -0.675709
    110 H47         1.3030   -1.3650    0.4600 hn        1 MOL      0.354396
    111 H48         2.9290   -3.4340   -1.2110 h1        1 MOL      0.043678
    112 H49         2.5810   -2.1240   -3.1170 hc        1 MOL      0.067057
    113 H50         2.0240   -0.7190   -2.0130 hc        1 MOL      0.067057
    114 N11         5.0330   -2.1800   -1.4420 n         1 MOL     -0.810177
    115 C36         6.3480   -1.7310   -1.2160 c3        1 MOL      0.563318
    116 C37         6.6740   -0.1570   -1.1310 c         1 MOL      0.209140
    117 O19         7.3880    0.2560   -0.1460 o         1 MOL     -0.463169
    118 C38         7.2080   -2.5950   -2.1480 c3        1 MOL     -0.222175
    119 C39         8.6330   -2.2170   -1.9510 ca        1 MOL      0.183025
    120 C40         9.3280   -2.4210   -0.7530 ca        1 MOL     -0.302313
    121 C41         9.2160   -1.3800   -2.8910 ca        1 MOL     -0.302313
    122 C42        10.5990   -1.9510   -0.5100 ca        1 MOL      0.010010
    123 C43        10.4860   -0.9010   -2.6450 ca        1 MOL      0.010010
    124 C44        11.2450   -1.2350   -1.5090 ca        1 MOL     -0.190064
    125 H51         4.8350   -2.8390   -2.1830 hn        1 MOL      0.353161
    126 H52         6.6240   -2.1010   -0.2340 h1        1 MOL      0.022012
    127 H53         6.9240   -2.5120   -3.1940 hc        1 MOL      0.059198
    128 H54         7.1620   -3.6450   -1.8660 hc        1 MOL      0.059198
    129 H55         8.8770   -2.9280    0.0850 ha        1 MOL      0.139282
    130 H56         8.7080   -1.2110   -3.8290 ha        1 MOL      0.139282
    131 H57        11.2320   -2.1410    0.3420 ha        1 MOL      0.079867
    132 H58        10.9910   -0.3870   -3.4420 ha        1 MOL      0.079867
    133 H59        12.2740   -0.9070   -1.4840 ha        1 MOL      0.110449
    134 N12         6.0560    0.6460   -1.9980 n         1 MOL      0.010554
    135 C45         5.9590    2.0810   -1.8210 c3        1 MOL      0.087347
    136 C46         5.2650    2.6520   -0.5390 c         1 MOL      0.221462
    137 O20         5.4750    3.8120   -0.3440 o         1 MOL     -0.480421
    138 C47         5.1000    2.5730   -3.0450 c3        1 MOL     -0.160499
    139 C48         5.3170    1.4950   -4.0670 c3        1 MOL     -0.023534
    140 C49         5.5040    0.2280   -3.2610 c3        1 MOL      0.101240
    141 H60         7.0240    2.3100   -1.8710 h1        1 MOL      0.036977
    142 H61         4.0470    2.5890   -2.8120 hc        1 MOL      0.097127
    143 H62         5.4890    3.5340   -3.3620 hc        1 MOL      0.097127
    144 H63         4.4810    1.5070   -4.7600 hc        1 MOL      0.013574
    145 H64         6.2980    1.6350   -4.5180 hc        1 MOL      0.013574
    146 H65         4.5590   -0.2590   -3.0500 h1        1 MOL     -0.019466
    147 H66         6.1110   -0.4370   -3.8730 h1        1 MOL     -0.019466
    148 N13         4.4800    1.8570    0.1840 n         1 MOL     -0.115713
    149 C50         4.0210    2.2420    1.5760 c3        1 MOL     -0.063596
    150 C51         5.0170    1.8300    2.6580 c         1 MOL      0.492801
    151 O21         4.9950    2.4680    3.7050 o         1 MOL     -0.587190
    152 C52         2.6550    1.5680    1.7180 c3        1 MOL     -0.084402
    153 C53         1.6200    2.3550    0.8840 c3        1 MOL      0.037233
    154 C54         0.4210    1.4740    0.5770 c         1 MOL      0.613856
    155 O22         0.3640    0.2540    0.9010 o         1 MOL     -0.686053
    156 O23        -0.5060    1.8970   -0.1340 o         1 MOL     -0.686053
    157 H67         4.2410    0.9340   -0.1220 hn        1 MOL      0.142922
    158 H68         3.8490    3.3170    1.6540 h1        1 MOL      0.103523
    159 H69         2.3100    1.5240    2.7510 hc        1 MOL      0.040953
    160 H70         2.6440    0.5090    1.4900 hc        1 MOL      0.040953
    161 H71         1.9510    2.6560   -0.1020 hc        1 MOL      0.029518
    162 H72         1.3910    3.2810    1.4290 hc        1 MOL      0.029518
    163 N14         5.8480    0.8810    2.3530 n         1 MOL      0.013306
    164 C55         6.8670    0.4590    3.2220 c3        1 MOL     -0.219168
    165 H73         7.5000   -0.2680    2.7130 h1        1 MOL      0.073913
    166 H74         7.4680    1.3170    3.5220 h1        1 MOL      0.073913
    167 H75         6.4240   -0.0020    4.1050 h1        1 MOL      0.073913
    168 H76         5.7730    0.4550    1.4380 hn        1 MOL      0.055416
    169 Ca1        -2.0220   -0.2980   -0.3630 Ca        1 MOL      1.649493
    170 O24        -1.7290    0.5730    2.4500 oh        1 MOL     -0.734744
    171 H77        -1.8650    0.3870    3.3850 ho        1 MOL      0.368837
    172 H78        -0.8200    0.3380    2.2900 ho        1 MOL      0.368837
    173 O25        -4.3590   -0.7060    1.0730 oh        1 MOL     -0.734744
    174 H79        -4.3560    0.2410    0.9460 ho        1 MOL      0.368837
    175 H80        -4.4860   -0.8200    2.0180 ho        1 MOL      0.368837
@<TRIPOS>BOND
     1    1    2 1   
     2    1    4 1   
     3    1    5 1   
     4    1    6 1   
     5    2    3 2   
     6    2    7 1   
     7    7    8 1   
     8    7   15 1   
     9    8    9 1   
    10    8   11 1   
    11    8   16 1   
    12    9   10 2   
    13    9   19 1   
    14   11   12 1   
    15   11   17 1   
    16   11   18 1   
    17   12   13 1   
    18   12   14 1   
    19   19   20 1   
    20   19   24 1   
    21   20   21 1   
    22   20   23 1   
    23   20   25 1   
    24   21   22 2   
    25   21   29 1   
    26   23   26 1   
    27   23   27 1   
    28   23   28 1   
    29   29   30 1   
    30   29   37 1   
    31   30   31 1   
    32   30   33 1   
    33   30   38 1   
    34   31   32 2   
    35   31   41 1   
    36   33   34 1   
    37   33   39 1   
    38   33   40 1   
    39   34   35 1   
    40   34   36 1   
    41   41   42 1   
    42   41   45 1   
    43   42   43 1   
    44   42   46 1   
    45   42   47 1   
    46   43   44 2   
    47   43   48 1   
    48   48   49 1   
    49   48   56 1   
    50   49   50 1   
    51   49   52 1   
    52   49   57 1   
    53   50   51 2   
    54   50   62 1   
    55   52   53 1   
    56   52   58 1   
    57   52   59 1   
    58   53   54 1   
    59   53   55 2   
    60   54   60 1   
    61   54   61 1   
    62   62   63 1   
    63   62   66 1   
    64   63   64 1   
    65   63   67 1   
    66   63   68 1   
    67   64   65 2   
    68   64   69 1   
    69   69   70 1   
    70   69   76 1   
    71   70   71 1   
    72   70   73 1   
    73   70   77 1   
    74   71   72 2   
    75   71   83 1   
    76   73   74 1   
    77   73   75 1   
    78   73   78 1   
    79   74   80 1   
    80   74   81 1   
    81   74   82 1   
    82   75   79 1   
    83   83   84 1   
    84   83   91 1   
    85   84   85 1   
    86   84   87 1   
    87   84   92 1   
    88   85   86 2   
    89   85  102 1   
    90   87   88 1   
    91   87   89 1   
    92   87   93 1   
    93   88   90 1   
    94   88   94 1   
    95   88   95 1   
    96   89   96 1   
    97   89   97 1   
    98   89   98 1   
    99   90   99 1   
   100   90  100 1   
   101   90  101 1   
   102  102  103 1   
   103  102  110 1   
   104  103  104 1   
   105  103  106 1   
   106  103  111 1   
   107  104  105 2   
   108  104  114 1   
   109  106  107 1   
   110  106  112 1   
   111  106  113 1   
   112  107  108 1   
   113  107  109 1   
   114  114  115 1   
   115  114  125 1   
   116  115  116 1   
   117  115  118 1   
   118  115  126 1   
   119  116  117 2   
   120  116  134 1   
   121  118  119 1   
   122  118  127 1   
   123  118  128 1   
   124  119  120 ar  
   125  119  121 ar  
   126  120  122 ar  
   127  120  129 1   
   128  121  123 ar  
   129  121  130 1   
   130  122  124 ar  
   131  122  131 1   
   132  123  124 ar  
   133  123  132 1   
   134  124  133 1   
   135  134  135 1   
   136  134  140 1   
   137  135  136 1   
   138  135  138 1   
   139  135  141 1   
   140  136  137 2   
   141  136  148 1   
   142  138  139 1   
   143  138  142 1   
   144  138  143 1   
   145  139  140 1   
   146  139  144 1   
   147  139  145 1   
   148  140  146 1   
   149  140  147 1   
   150  148  149 1   
   151  148  157 1   
   152  149  150 1   
   153  149  152 1   
   154  149  158 1   
   155  150  151 2   
   156  150  163 1   
   157  152  153 1   
   158  152  159 1   
   159  152  160 1   
   160  153  154 1   
   161  153  161 1   
   162  153  162 1   
   163  154  155 1   
   164  154  156 1   
   165  163  164 1   
   166  163  168 1   
   167  164  165 1   
   168  164  166 1   
   169  164  167 1   
   170  170  171 1   
   171  170  172 1   
   172  173  174 1   
   173  173  175 1   
@<TRIPOS>SUBSTRUCTURE
     1 MOL         1 TEMP              0 ****  ****    0 ROOT
