@<TRIPOS>MOLECULE
MOL
  189   185     1     0     0
SMALL
resp


@<TRIPOS>ATOM
      1 C1          0.2150    3.4980    5.2460 c3        1 MOL     -0.311159
      2 C2         -0.2380    3.1100    3.8070 c         1 MOL      0.642136
      3 O1          0.4780    3.4070    2.8480 o         1 MOL     -0.569190
      4 H1         -0.6210    3.3760    5.9350 hc        1 MOL      0.078547
      5 H2          1.0380    2.8520    5.5550 hc        1 MOL      0.078547
      6 H3          0.5450    4.5370    5.2550 hc        1 MOL      0.078547
      7 N1         -1.3900    2.4810    3.6470 n         1 MOL     -0.515357
      8 C3         -1.9230    2.0630    2.3570 c3        1 MOL      0.105961
      9 C4         -2.4370    3.2790    1.5490 c         1 MOL      0.499742
     10 O2         -3.2810    3.9860    2.1010 o         1 MOL     -0.567930
     11 C5         -2.9840    0.9040    2.4850 c3        1 MOL     -0.260576
     12 C6         -3.8220    0.7580    1.2120 c         1 MOL      0.798434
     13 O3         -3.3120    0.9360    0.0320 o         1 MOL     -0.653256
     14 O4         -5.0300    0.4630    1.3420 o         1 MOL     -0.653256
     15 H4         -2.0010    2.4390    4.4400 hn        1 MOL      0.331233
     16 H5         -1.1450    1.5680    1.7760 h1        1 MOL     -0.017332
     17 H6         -3.7090    1.2700    3.2150 hc        1 MOL      0.049870
     18 H7         -2.5880   -0.0450    2.8540 hc        1 MOL      0.049870
     19 N2         -1.9950    3.5850    0.3340 n         1 MOL     -0.286694
     20 C7         -2.2430    4.8500   -0.3630 c3        1 MOL     -0.063358
     21 C8         -3.3330    4.7400   -1.4990 c         1 MOL      0.575342
     22 O5         -3.8300    5.7340   -1.9740 o         1 MOL     -0.592898
     23 C9         -0.9160    5.3500   -0.9360 c3        1 MOL     -0.089090
     24 C10         0.1120    5.7000    0.1200 c3        1 MOL     -0.022660
     25 C11        -0.2360    6.8260    1.1390 c3        1 MOL     -0.159737
     26 C12         0.9540    7.4350    1.8030 c3        1 MOL      0.048049
     27 N3          0.6050    8.2370    3.0690 n4        1 MOL     -0.235285
     28 H8         -1.2860    3.0180   -0.1150 hn        1 MOL      0.288488
     29 H9         -2.5940    5.5950    0.3430 h1        1 MOL      0.058524
     30 H10        -1.1510    6.1710   -1.6090 hc        1 MOL      0.051487
     31 H11        -0.5640    4.5700   -1.6100 hc        1 MOL      0.051487
     32 H12         1.0460    5.9810   -0.3640 hc        1 MOL      0.058036
     33 H13         0.2630    4.8050    0.7260 hc        1 MOL      0.058036
     34 H14        -0.8870    6.5330    1.9650 hc        1 MOL      0.070783
     35 H15        -0.8690    7.6080    0.7080 hc        1 MOL      0.070783
     36 H16         1.4870    8.0840    1.1080 hx        1 MOL      0.076321
     37 H17         1.5820    6.6030    2.1230 hx        1 MOL      0.076321
     38 H18         0.0220    9.0350    2.8470 hn        1 MOL      0.288111
     39 H19        -0.0280    7.7340    3.6680 hn        1 MOL      0.288111
     40 H20         1.4140    8.6210    3.5400 hn        1 MOL      0.288111
     41 N4         -3.7580    3.5870   -1.9730 n         1 MOL     -0.332717
     42 C13        -4.7510    3.3920   -3.0120 c3        1 MOL      0.000747
     43 C14        -5.9900    2.6240   -2.4950 c         1 MOL      0.452265
     44 O6         -6.9320    2.4820   -3.2730 o         1 MOL     -0.499259
     45 C15        -3.9820    2.7640   -4.2040 c3        1 MOL     -0.200702
     46 C16        -3.0560    1.5830   -3.9610 c         1 MOL      0.873338
     47 O7         -3.2100    0.7820   -3.0000 o         1 MOL     -0.723779
     48 O8         -2.0480    1.4900   -4.6490 o         1 MOL     -0.723779
     49 H21        -3.2710    2.7280   -1.7510 hn        1 MOL      0.205832
     50 H22        -5.0800    4.3830   -3.3460 h1        1 MOL      0.121487
     51 H23        -3.3940    3.6050   -4.5750 hc        1 MOL      0.045253
     52 H24        -4.6700    2.5630   -5.0270 hc        1 MOL      0.045253
     53 N5         -6.0380    2.1350   -1.2130 n         1 MOL     -0.298533
     54 C17        -7.3060    1.5770   -0.6380 c3        1 MOL     -0.148944
     55 C18        -7.7090    0.2560   -1.3210 c         1 MOL      0.503296
     56 O9         -8.8560    0.0770   -1.6520 o         1 MOL     -0.564014
     57 H25        -5.1860    1.8860   -0.7300 hn        1 MOL      0.187619
     58 H26        -8.1230    2.2910   -0.8000 h1        1 MOL      0.096571
     59 H27        -7.1750    1.3720    0.4240 h1        1 MOL      0.096571
     60 N6         -6.7690   -0.6980   -1.4410 n         1 MOL     -0.253746
     61 C19        -6.9490   -2.0140   -2.0760 c3        1 MOL      0.040152
     62 C20        -7.0020   -3.1090   -0.9310 c         1 MOL      0.407905
     63 O10        -7.2050   -4.2920   -1.0940 o         1 MOL     -0.544475
     64 C21        -5.7900   -2.2780   -2.9930 c3        1 MOL     -0.203001
     65 C22        -4.4400   -2.1570   -2.3640 c         1 MOL      0.724516
     66 O11        -3.4890   -2.0810   -3.1720 o         1 MOL     -0.720484
     67 O12        -4.2540   -1.9300   -1.1590 o         1 MOL     -0.720484
     68 H28        -5.8070   -0.4840   -1.2410 hn        1 MOL      0.235302
     69 H29        -7.8990   -2.0450   -2.5950 h1        1 MOL      0.090869
     70 H30        -5.8380   -1.5790   -3.8340 hc        1 MOL      0.066748
     71 H31        -6.0020   -3.2760   -3.3720 hc        1 MOL      0.066748
     72 N7         -6.7750   -2.7210    0.2900 n         1 MOL     -0.197202
     73 C23        -6.8780   -3.5740    1.4820 c3        1 MOL     -0.346315
     74 C24        -5.5390   -4.2670    1.9000 c         1 MOL      0.515849
     75 O13        -5.5820   -5.2430    2.6940 o         1 MOL     -0.557013
     76 H32        -6.4040   -1.7970    0.4630 hn        1 MOL      0.190479
     77 H33        -7.6270   -4.3200    1.2220 h1        1 MOL      0.162063
     78 H34        -7.2170   -2.8830    2.2480 h1        1 MOL      0.162063
     79 N8         -4.4020   -3.8140    1.4310 n         1 MOL     -0.116544
     80 C25        -3.0460   -4.1300    1.9650 c3        1 MOL     -0.308733
     81 C26        -1.9410   -3.0500    1.8660 c         1 MOL      0.891707
     82 O14        -2.1980   -2.0390    1.1840 o         1 MOL     -0.766217
     83 C27        -2.6000   -5.4330    1.1980 c3        1 MOL      0.385132
     84 C28        -3.2930   -6.7620    1.4610 c3        1 MOL     -0.469139
     85 O15        -2.6610   -5.2710   -0.1280 oh        1 MOL     -0.554439
     86 H35        -4.4500   -3.2550    0.5920 hn        1 MOL      0.233693
     87 H36        -3.0790   -4.3430    3.0370 h1        1 MOL      0.114096
     88 H37        -1.5360   -5.5950    1.4190 h1        1 MOL      0.035892
     89 H38        -3.6040   -5.1540   -0.2200 ho        1 MOL      0.358826
     90 H39        -3.5050   -6.7740    2.5290 hc        1 MOL      0.121982
     91 H40        -4.2750   -6.7800    0.9880 hc        1 MOL      0.121982
     92 H41        -2.6850   -7.6120    1.1340 hc        1 MOL      0.121982
     93 N9         -0.7290   -3.2210    2.5420 n         1 MOL     -0.751850
     94 C29         0.4200   -2.2880    2.4190 c3        1 MOL      0.056204
     95 C30         1.5580   -3.0180    1.7190 c         1 MOL      0.587873
     96 O16         1.8780   -4.1170    2.1610 o         1 MOL     -0.597753
     97 C31         0.8030   -1.7600    3.8610 c3        1 MOL      0.130915
     98 C32        -0.3010   -1.3580    4.8130 c3        1 MOL      0.294969
     99 C33         1.6590   -0.4770    3.5320 c3        1 MOL     -0.445792
    100 C34         0.2260   -1.3340    6.2660 c3        1 MOL     -0.309868
    101 H42        -0.6220   -3.9940    3.1900 hn        1 MOL      0.322802
    102 H43         0.0800   -1.4480    1.8150 h1        1 MOL      0.198164
    103 H44         1.4460   -2.5030    4.3230 hc        1 MOL      0.007084
    104 H45        -1.1730   -2.0130    4.8510 hc        1 MOL     -0.042566
    105 H46        -0.7010   -0.3710    4.5890 hc        1 MOL     -0.042566
    106 H47         1.0550    0.3170    3.0890 hc        1 MOL      0.088789
    107 H48         2.0380   -0.0640    4.4640 hc        1 MOL      0.088789
    108 H49         2.5780   -0.7160    2.9980 hc        1 MOL      0.088789
    109 H50         1.2160   -0.8850    6.3120 hc        1 MOL      0.057877
    110 H51        -0.5440   -0.7380    6.7640 hc        1 MOL      0.057877
    111 H52         0.3370   -2.3320    6.6900 hc        1 MOL      0.057877
    112 N10         2.1010   -2.4920    0.6550 n         1 MOL     -0.198005
    113 C35         3.3610   -3.0210   -0.0030 c3        1 MOL      0.037833
    114 C36         4.5820   -2.4360    0.7440 c         1 MOL      0.371627
    115 O17         4.5980   -1.4650    1.5250 o         1 MOL     -0.331264
    116 C37         3.3600   -2.5740   -1.4870 c3        1 MOL      0.057459
    117 C38         2.1480   -2.9550   -2.2960 c3        1 MOL     -0.402951
    118 O18         3.4910   -1.1790   -1.5630 oh        1 MOL     -0.288854
    119 H53         1.8140   -1.5950    0.2790 hn        1 MOL      0.012235
    120 H54         3.3700   -4.1060    0.1040 h1        1 MOL      0.096012
    121 H55         4.2940   -2.9350   -1.9390 h1        1 MOL     -0.003284
    122 H56         3.5250   -0.9000   -2.4770 ho        1 MOL      0.350319
    123 H57         2.1730   -2.6260   -3.3310 hc        1 MOL      0.130026
    124 H58         1.9640   -4.0300   -2.2810 hc        1 MOL      0.130026
    125 H59         1.2040   -2.5960   -1.8960 hc        1 MOL      0.130026
    126 N11         5.7490   -2.9720    0.3330 n         1 MOL     -0.384114
    127 C39         7.0840   -2.4370    0.6740 c3        1 MOL      0.000942
    128 C40         7.4130   -0.9760    0.2460 c         1 MOL      0.166857
    129 O19         8.0150   -0.2630    1.0290 o         1 MOL     -0.453618
    130 C41         8.1330   -3.2070   -0.1470 c3        1 MOL      0.201710
    131 C42         8.3820   -4.5730    0.3720 c3        1 MOL     -0.422535
    132 O20         7.8440   -3.2520   -1.5430 oh        1 MOL     -0.635991
    133 H60         5.6660   -3.7020   -0.3610 hn        1 MOL      0.286935
    134 H61         7.2110   -2.4500    1.7590 h1        1 MOL      0.151010
    135 H62         9.0860   -2.6900   -0.0200 h1        1 MOL      0.079971
    136 H63         8.3860   -3.9280   -1.9500 ho        1 MOL      0.429335
    137 H64         9.3270   -4.8980   -0.0600 hc        1 MOL      0.123310
    138 H65         8.4850   -4.5200    1.4560 hc        1 MOL      0.123310
    139 H66         7.5690   -5.2160    0.0430 hc        1 MOL      0.123310
    140 N12         6.8430   -0.5570   -0.8760 n         1 MOL      0.037763
    141 C43         6.9030    0.8370   -1.3780 c3        1 MOL     -0.034333
    142 C44         5.9950    1.7990   -0.6680 c         1 MOL      0.353572
    143 O21         6.1420    3.0520   -0.6790 o         1 MOL     -0.523301
    144 C45         6.7510    0.8590   -2.9510 c3        1 MOL     -0.197314
    145 C46         7.8320   -0.0010   -3.6570 c3        1 MOL      0.045875
    146 C47         9.2790    0.5740   -3.5300 c3        1 MOL      0.049667
    147 C48        10.2640   -0.4250   -4.2000 c3        1 MOL     -0.051206
    148 N13        10.3920   -0.3130   -5.6740 n4        1 MOL     -0.097081
    149 H67         6.3970   -1.2250   -1.4810 hn        1 MOL      0.226045
    150 H68         7.8820    1.2680   -1.1490 h1        1 MOL      0.094071
    151 H69         6.7320    1.8890   -3.2840 hc        1 MOL      0.082103
    152 H70         5.8200    0.3720   -3.2220 hc        1 MOL      0.082103
    153 H71         7.5990   -0.0340   -4.7160 hc        1 MOL     -0.021810
    154 H72         7.7640   -0.9910   -3.2180 hc        1 MOL     -0.021810
    155 H73         9.4780    0.7400   -2.4730 hc        1 MOL      0.040659
    156 H74         9.3110    1.5700   -3.9730 hc        1 MOL      0.040659
    157 H75         9.9680   -1.4450   -3.9280 hx        1 MOL      0.069245
    158 H76        11.2390   -0.1340   -3.8020 hx        1 MOL      0.069245
    159 H77        10.7320    0.5530   -6.0630 hn        1 MOL      0.226700
    160 H78        11.0670   -1.0250   -5.9230 hn        1 MOL      0.226700
    161 H79         9.6060   -0.5980   -6.2370 hn        1 MOL      0.226700
    162 N14         4.8990    1.2840   -0.0410 n         1 MOL      0.111410
    163 C49         3.9830    2.0710    0.7960 c3        1 MOL     -0.180394
    164 C50         4.5650    2.1990    2.2000 c         1 MOL      0.501531
    165 O22         4.4490    3.3370    2.7190 o         1 MOL     -0.562642
    166 C51         2.5470    1.4160    0.6730 c3        1 MOL     -0.004153
    167 C52         1.9160    1.5280   -0.6940 c3        1 MOL      0.131104
    168 C53         0.5590    0.8570   -0.7320 c         1 MOL      0.546097
    169 O23        -0.4660    1.5360   -0.9420 o         1 MOL     -0.676608
    170 O24         0.5110   -0.3990   -0.5030 o         1 MOL     -0.676608
    171 H80         4.7740    0.2860   -0.1190 hn        1 MOL     -0.226841
    172 H81         3.8670    3.1230    0.5220 h1        1 MOL      0.109132
    173 H82         1.9140    1.9920    1.3570 hc        1 MOL      0.076042
    174 H83         2.6310    0.3770    0.9920 hc        1 MOL      0.076042
    175 H84         2.5620    1.0280   -1.4210 hc        1 MOL     -0.057414
    176 H85         1.8760    2.5600   -1.0390 hc        1 MOL     -0.057414
    177 N15         5.2430    1.2350    2.8280 n         1 MOL     -0.186940
    178 C54         6.0890    1.4440    4.0390 c3        1 MOL     -0.335180
    179 H86         5.4700    1.3610    4.9330 h1        1 MOL      0.132205
    180 H87         6.8740    0.6880    4.0700 h1        1 MOL      0.132205
    181 H88         6.5400    2.4360    4.0020 h1        1 MOL      0.132205
    182 H89         5.3910    0.4320    2.2390 hn        1 MOL      0.223997
    183 Ca1        -1.9190   -0.7350   -1.2780 Ca        1 MOL      1.733092
    184 O25        -0.5280   -0.4080   -3.5470 oh        1 MOL     -0.833911
    185 H90         0.1050   -0.4950   -4.2560 ho        1 MOL      0.395913
    186 H91        -1.0840    0.3250   -3.8090 ho        1 MOL      0.395913
    187 O26        -1.3010   -3.2870   -1.7160 oh        1 MOL     -0.833911
    188 H92        -1.7570   -4.0030   -1.2890 ho        1 MOL      0.395913
    189 H93        -1.2420   -3.5450   -2.6400 ho        1 MOL      0.395913
@<TRIPOS>BOND
     1    1    2 1   
     2    1    4 1   
     3    1    5 1   
     4    1    6 1   
     5    2    3 2   
     6    2    7 1   
     7    7    8 1   
     8    7   15 1   
     9    8    9 1   
    10    8   11 1   
    11    8   16 1   
    12    9   10 2   
    13    9   19 1   
    14   11   12 1   
    15   11   17 1   
    16   11   18 1   
    17   12   13 1   
    18   12   14 1   
    19   19   20 1   
    20   19   28 1   
    21   20   21 1   
    22   20   23 1   
    23   20   29 1   
    24   21   22 2   
    25   21   41 1   
    26   23   24 1   
    27   23   30 1   
    28   23   31 1   
    29   24   25 1   
    30   24   32 1   
    31   24   33 1   
    32   25   26 1   
    33   25   34 1   
    34   25   35 1   
    35   26   27 1   
    36   26   36 1   
    37   26   37 1   
    38   27   38 1   
    39   27   39 1   
    40   27   40 1   
    41   41   42 1   
    42   41   49 1   
    43   42   43 1   
    44   42   45 1   
    45   42   50 1   
    46   43   44 2   
    47   43   53 1   
    48   45   46 1   
    49   45   51 1   
    50   45   52 1   
    51   46   47 1   
    52   46   48 1   
    53   53   54 1   
    54   53   57 1   
    55   54   55 1   
    56   54   58 1   
    57   54   59 1   
    58   55   56 2   
    59   55   60 1   
    60   60   61 1   
    61   60   68 1   
    62   61   62 1   
    63   61   64 1   
    64   61   69 1   
    65   62   63 2   
    66   62   72 1   
    67   64   65 1   
    68   64   70 1   
    69   64   71 1   
    70   65   66 1   
    71   65   67 1   
    72   72   73 1   
    73   72   76 1   
    74   73   74 1   
    75   73   77 1   
    76   73   78 1   
    77   74   75 2   
    78   74   79 1   
    79   79   80 1   
    80   79   86 1   
    81   80   81 1   
    82   80   83 1   
    83   80   87 1   
    84   81   82 2   
    85   81   93 1   
    86   83   84 1   
    87   83   85 1   
    88   83   88 1   
    89   84   90 1   
    90   84   91 1   
    91   84   92 1   
    92   85   89 1   
    93   93   94 1   
    94   93  101 1   
    95   94   95 1   
    96   94   97 1   
    97   94  102 1   
    98   95   96 2   
    99   95  112 1   
   100   97   98 1   
   101   97   99 1   
   102   97  103 1   
   103   98  100 1   
   104   98  104 1   
   105   98  105 1   
   106   99  106 1   
   107   99  107 1   
   108   99  108 1   
   109  100  109 1   
   110  100  110 1   
   111  100  111 1   
   112  112  113 1   
   113  112  119 1   
   114  113  114 1   
   115  113  116 1   
   116  113  120 1   
   117  114  115 2   
   118  114  126 1   
   119  116  117 1   
   120  116  118 1   
   121  116  121 1   
   122  117  123 1   
   123  117  124 1   
   124  117  125 1   
   125  118  122 1   
   126  126  127 1   
   127  126  133 1   
   128  127  128 1   
   129  127  130 1   
   130  127  134 1   
   131  128  129 2   
   132  128  140 1   
   133  130  131 1   
   134  130  132 1   
   135  130  135 1   
   136  131  137 1   
   137  131  138 1   
   138  131  139 1   
   139  132  136 1   
   140  140  141 1   
   141  140  149 1   
   142  141  142 1   
   143  141  144 1   
   144  141  150 1   
   145  142  143 2   
   146  142  162 1   
   147  144  145 1   
   148  144  151 1   
   149  144  152 1   
   150  145  146 1   
   151  145  153 1   
   152  145  154 1   
   153  146  147 1   
   154  146  155 1   
   155  146  156 1   
   156  147  148 1   
   157  147  157 1   
   158  147  158 1   
   159  148  159 1   
   160  148  160 1   
   161  148  161 1   
   162  162  163 1   
   163  162  171 1   
   164  163  164 1   
   165  163  166 1   
   166  163  172 1   
   167  164  165 2   
   168  164  177 1   
   169  166  167 1   
   170  166  173 1   
   171  166  174 1   
   172  167  168 1   
   173  167  175 1   
   174  167  176 1   
   175  168  169 1   
   176  168  170 1   
   177  177  178 1   
   178  177  182 1   
   179  178  179 1   
   180  178  180 1   
   181  178  181 1   
   182  184  185 1   
   183  184  186 1   
   184  187  188 1   
   185  187  189 1   
@<TRIPOS>SUBSTRUCTURE
     1 MOL         1 TEMP              0 ****  ****    0 ROOT
