@<TRIPOS>MOLECULE
MOL
  189   185     1     0     0
SMALL
resp


@<TRIPOS>ATOM
      1 C1          0.5150    2.7880    5.4900 c3        1 MOL     -0.457118
      2 C2          0.0190    2.6950    4.0680 c         1 MOL      0.739366
      3 O1          0.7860    2.8350    3.1880 o         1 MOL     -0.531147
      4 H1         -0.2830    3.1660    6.1290 hc        1 MOL      0.113744
      5 H2          0.8180    1.8000    5.8340 hc        1 MOL      0.113744
      6 H3          1.3670    3.4670    5.5340 hc        1 MOL      0.113744
      7 N1         -1.2800    2.3540    3.8440 n         1 MOL     -0.615980
      8 C3         -1.8680    1.9000    2.5600 c3        1 MOL      0.211442
      9 C4         -2.2630    3.1100    1.6740 c         1 MOL      0.272769
     10 O2         -3.1750    3.8050    2.0730 o         1 MOL     -0.512021
     11 C5         -3.0970    1.0440    2.8510 c3        1 MOL     -0.074192
     12 C6         -3.7710    0.4790    1.5740 c         1 MOL      0.605198
     13 O3         -4.7650   -0.2260    1.6720 o         1 MOL     -0.622936
     14 O4         -3.2470    0.6060    0.4550 o         1 MOL     -0.622936
     15 H4         -1.9020    2.1910    4.6290 hn        1 MOL      0.320816
     16 H5         -1.1140    1.3190    2.0400 h1        1 MOL     -0.006478
     17 H6         -3.7820    1.5170    3.5570 hc        1 MOL      0.031342
     18 H7         -2.7700    0.1900    3.4410 hc        1 MOL      0.031342
     19 N2         -1.4930    3.4250    0.6190 n         1 MOL      0.077351
     20 C7         -1.3650    4.8190    0.0540 c3        1 MOL     -0.034701
     21 C8         -2.3640    5.0660   -1.0190 c         1 MOL      0.469847
     22 O5         -2.6980    6.2240   -1.2630 o         1 MOL     -0.560468
     23 C9          0.0430    5.0700   -0.4460 c3        1 MOL     -0.149479
     24 C10         1.1440    5.0670    0.5950 c3        1 MOL      0.104519
     25 C11         0.7320    5.9480    1.8050 c3        1 MOL     -0.106084
     26 C12         2.0170    6.2010    2.6650 c3        1 MOL      0.117539
     27 N3          1.8430    7.0830    3.8840 n4        1 MOL     -0.304238
     28 H8         -0.7720    2.7550    0.4300 hn        1 MOL      0.094294
     29 H9         -1.6690    5.5760    0.7770 h1        1 MOL      0.066662
     30 H10         0.1210    6.0610   -0.8960 hc        1 MOL      0.045523
     31 H11         0.3340    4.3510   -1.2050 hc        1 MOL      0.045523
     32 H12         2.1340    5.3030    0.1910 hc        1 MOL      0.034787
     33 H13         1.1610    4.0440    0.9400 hc        1 MOL      0.034787
     34 H14         0.0800    5.4110    2.4900 hc        1 MOL      0.040351
     35 H15         0.2950    6.9090    1.5040 hc        1 MOL      0.040351
     36 H16         2.7520    6.6480    1.9910 hx        1 MOL      0.038451
     37 H17         2.3670    5.2230    2.9840 hx        1 MOL      0.038451
     38 H18         2.7030    7.4260    4.2930 hn        1 MOL      0.304223
     39 H19         1.1800    7.8270    3.7480 hn        1 MOL      0.304223
     40 H20         1.4870    6.5200    4.6380 hn        1 MOL      0.304223
     41 N4         -2.9150    3.9920   -1.6320 n         1 MOL     -0.278831
     42 C13        -3.9450    4.0140   -2.5970 c3        1 MOL      0.142885
     43 C14        -5.1950    3.3670   -2.0290 c         1 MOL      0.307366
     44 O6         -6.2950    3.4140   -2.6340 o         1 MOL     -0.545184
     45 C15        -3.4220    3.3280   -3.8550 c3        1 MOL     -0.295148
     46 C16        -2.9290    1.8870   -3.6750 c         1 MOL      0.814180
     47 O7         -2.9240    1.3470   -2.5710 o         1 MOL     -0.750434
     48 O8         -2.3310    1.3300   -4.6260 o         1 MOL     -0.750434
     49 H21        -2.3940    3.1260   -1.5820 hn        1 MOL      0.197350
     50 H22        -4.2030    5.0190   -2.9270 h1        1 MOL      0.077818
     51 H23        -2.6840    3.9760   -4.3260 hc        1 MOL      0.073234
     52 H24        -4.1950    3.2930   -4.6220 hc        1 MOL      0.073234
     53 N5         -5.1590    2.7280   -0.8780 n         1 MOL      0.018251
     54 C17        -6.2820    2.2950   -0.0180 c3        1 MOL     -0.163953
     55 C18        -6.9110    1.0420   -0.6040 c         1 MOL      0.551753
     56 O9         -8.1630    1.0160   -0.5650 o         1 MOL     -0.595471
     57 H25        -4.2150    2.6980   -0.5100 hn        1 MOL     -0.021877
     58 H26        -6.9730    3.1130    0.1580 h1        1 MOL      0.107252
     59 H27        -5.8560    1.9470    0.9210 h1        1 MOL      0.107252
     60 N6         -6.1610    0.0400   -0.9560 n         1 MOL     -0.243391
     61 C19        -6.7630   -1.2780   -1.3350 c3        1 MOL      0.054010
     62 C20        -7.0390   -2.3030   -0.2430 c         1 MOL      0.353277
     63 O10        -7.7410   -3.2840   -0.4850 o         1 MOL     -0.534124
     64 C21        -5.9200   -1.9360   -2.4430 c3        1 MOL     -0.280919
     65 C22        -4.4860   -1.9490   -2.0460 c         1 MOL      0.950582
     66 O11        -3.5470   -1.9010   -2.9200 o         1 MOL     -0.827726
     67 O12        -4.1650   -2.2230   -0.9080 o         1 MOL     -0.827726
     68 H28        -5.1540    0.1070   -0.8410 hn        1 MOL      0.116775
     69 H29        -7.7530   -1.1060   -1.7500 h1        1 MOL      0.101591
     70 H30        -5.9470   -1.2760   -3.3120 hc        1 MOL      0.082684
     71 H31        -6.3040   -2.9260   -2.6750 hc        1 MOL      0.082684
     72 N7         -6.4570   -2.0950    0.9390 n         1 MOL     -0.073076
     73 C23        -6.4650   -3.0400    1.9960 c3        1 MOL     -0.280857
     74 C24        -5.2390   -3.9160    2.1590 c         1 MOL      0.562763
     75 O13        -5.2490   -4.8250    2.9920 o         1 MOL     -0.581242
     76 H32        -5.9280   -1.2360    0.9760 hn        1 MOL      0.148525
     77 H33        -7.3540   -3.6590    1.8980 h1        1 MOL      0.121466
     78 H34        -6.5120   -2.4160    2.8950 h1        1 MOL      0.121466
     79 N8         -4.1360   -3.7240    1.4220 n         1 MOL     -0.197768
     80 C25        -2.7820   -4.3880    1.5010 c3        1 MOL     -0.373191
     81 C26        -1.6220   -3.3280    1.4320 c         1 MOL      0.755065
     82 O14        -1.7790   -2.2720    0.8140 o         1 MOL     -0.668960
     83 C27        -2.5840   -5.4640    0.4250 c3        1 MOL      0.432311
     84 C28        -3.4550   -6.7740    0.7310 c3        1 MOL     -0.281996
     85 O15        -3.0470   -4.9950   -0.8310 oh        1 MOL     -0.609706
     86 H35        -4.3030   -2.9700    0.7730 hn        1 MOL      0.310164
     87 H36        -2.5920   -4.9500    2.4080 h1        1 MOL      0.139813
     88 H37        -1.5970   -5.9310    0.4040 h1        1 MOL      0.004956
     89 H38        -3.5300   -4.1860   -0.6080 ho        1 MOL      0.394240
     90 H39        -4.4330   -6.6410    0.2820 hc        1 MOL      0.077697
     91 H40        -3.0120   -7.7030    0.3730 hc        1 MOL      0.077697
     92 H41        -3.6020   -6.8740    1.8050 hc        1 MOL      0.077697
     93 N9         -0.5020   -3.6760    2.0560 n         1 MOL     -0.635971
     94 C29         0.6400   -2.8690    2.0440 c3        1 MOL      0.003753
     95 C30         1.7070   -3.4660    1.0740 c         1 MOL      0.411335
     96 O16         2.0920   -4.6310    1.1540 o         1 MOL     -0.509796
     97 C31         1.2160   -2.5770    3.4520 c3        1 MOL      0.455443
     98 C32         0.1510   -2.3850    4.5880 c3        1 MOL     -0.077898
     99 C33         2.0430   -1.2970    3.4050 c3        1 MOL     -0.500715
    100 C34         0.8270   -2.4140    5.9870 c3        1 MOL     -0.210028
    101 H42        -0.4290   -4.5960    2.4680 hn        1 MOL      0.330628
    102 H43         0.4250   -1.8710    1.6550 h1        1 MOL      0.086107
    103 H44         1.8670   -3.4120    3.6960 hc        1 MOL     -0.063358
    104 H45        -0.5470   -3.2240    4.6550 hc        1 MOL      0.039959
    105 H46        -0.3120   -1.4250    4.3780 hc        1 MOL      0.039959
    106 H47         2.5080   -1.0300    4.3550 hc        1 MOL      0.098562
    107 H48         2.9270   -1.4760    2.8000 hc        1 MOL      0.098562
    108 H49         1.4540   -0.4340    3.1010 hc        1 MOL      0.098562
    109 H50         0.0740   -2.4150    6.7650 hc        1 MOL      0.056677
    110 H51         1.5240   -3.2450    6.1080 hc        1 MOL      0.056677
    111 H52         1.3960   -1.4960    6.1560 hc        1 MOL      0.056677
    112 N10         2.1830   -2.5910    0.0730 n         1 MOL     -0.214930
    113 C35         3.3100   -3.0040   -0.7920 c3        1 MOL      0.087537
    114 C36         4.6740   -2.3850   -0.2900 c         1 MOL      0.281039
    115 O17         4.6680   -1.4420    0.5470 o         1 MOL     -0.356808
    116 C37         3.1420   -2.5610   -2.2730 c3        1 MOL      0.263351
    117 C38         2.1470   -3.4640   -3.0310 c3        1 MOL     -0.402893
    118 O18         2.6340   -1.2820   -2.4000 oh        1 MOL     -0.538228
    119 H53         1.7950   -1.6560    0.0880 hn        1 MOL      0.183224
    120 H54         3.5690   -4.0590   -0.8210 h1        1 MOL      0.055288
    121 H55         4.0970   -2.5990   -2.7990 h1        1 MOL     -0.026976
    122 H56         2.0220   -1.2750   -1.6640 ho        1 MOL      0.395410
    123 H57         2.7840   -4.3340   -3.1850 hc        1 MOL      0.094829
    124 H58         1.3170   -3.7820   -2.4050 hc        1 MOL      0.094829
    125 H59         1.7730   -2.9520   -3.9260 hc        1 MOL      0.094829
    126 N11         5.7890   -2.9910   -0.6650 n         1 MOL     -0.303182
    127 C39         7.1220   -2.4640   -0.1380 c3        1 MOL     -0.113858
    128 C40         7.3660   -1.0060   -0.4210 c         1 MOL      0.464492
    129 O19         7.9510   -0.4420    0.4840 o         1 MOL     -0.499493
    130 C41         8.3140   -3.3780   -0.5630 c3        1 MOL      0.283686
    131 C42         8.4860   -4.6250    0.1870 c3        1 MOL     -0.349697
    132 O20         8.2630   -3.7400   -1.8860 oh        1 MOL     -0.661821
    133 H60         5.7690   -3.8100   -1.2540 hn        1 MOL      0.291400
    134 H61         7.1400   -2.6290    0.9340 h1        1 MOL      0.148790
    135 H62         9.2220   -2.8120   -0.3550 h1        1 MOL      0.051253
    136 H63         8.9910   -4.3370   -2.0660 ho        1 MOL      0.437740
    137 H64         9.3660   -5.1120   -0.2300 hc        1 MOL      0.098757
    138 H65         8.5740   -4.4770    1.2550 hc        1 MOL      0.098757
    139 H66         7.6630   -5.3330    0.0410 hc        1 MOL      0.098757
    140 N12         6.8910   -0.3970   -1.5350 n         1 MOL     -0.349798
    141 C43         6.9290    1.0630   -1.7170 c3        1 MOL      0.059172
    142 C44         6.1630    1.8920   -0.7340 c         1 MOL      0.257318
    143 O21         6.5660    3.0110   -0.4930 o         1 MOL     -0.472007
    144 C45         6.5310    1.4210   -3.1400 c3        1 MOL     -0.276867
    145 C46         4.9820    1.4800   -3.3430 c3        1 MOL      0.053102
    146 C47         4.5600    1.5880   -4.7660 c3        1 MOL     -0.060208
    147 C48         3.0540    1.4750   -4.8470 c3        1 MOL     -0.147085
    148 N13         2.7350    0.0430   -5.0120 n4        1 MOL     -0.398652
    149 H67         6.5620   -0.9560   -2.3100 hn        1 MOL      0.252629
    150 H68         7.9480    1.4370   -1.6260 h1        1 MOL      0.108265
    151 H69         7.0030    0.6730   -3.7730 hc        1 MOL      0.089593
    152 H70         7.0160    2.3550   -3.4130 hc        1 MOL      0.089593
    153 H71         4.5240    2.3390   -2.8530 hc        1 MOL      0.065900
    154 H72         4.5950    0.5700   -2.8710 hc        1 MOL      0.065900
    155 H73         5.0890    0.8400   -5.3700 hc        1 MOL      0.048007
    156 H74         4.7960    2.5710   -5.1480 hc        1 MOL      0.048007
    157 H75         2.7200    1.9780   -5.7550 hx        1 MOL      0.149211
    158 H76         2.7140    2.0180   -3.9750 hx        1 MOL      0.149211
    159 H77         1.7440    0.0200   -5.1930 hn        1 MOL      0.336710
    160 H78         3.2860   -0.5460   -5.6120 hn        1 MOL      0.336710
    161 H79         2.7200   -0.3820   -4.0870 hn        1 MOL      0.336710
    162 N14         5.0680    1.3200   -0.2950 n         1 MOL      0.142178
    163 C49         4.1800    2.0170    0.6580 c3        1 MOL     -0.169023
    164 C50         4.7720    2.0400    2.0220 c         1 MOL      0.469094
    165 O22         4.8510    3.0840    2.6000 o         1 MOL     -0.543135
    166 C51         2.7450    1.4030    0.6210 c3        1 MOL     -0.005720
    167 C52         2.0750    1.5500   -0.6710 c3        1 MOL     -0.087648
    168 C53         0.7640    0.7790   -0.6520 c         1 MOL      0.800981
    169 O23         0.7240   -0.4560   -0.6500 o         1 MOL     -0.722452
    170 O24        -0.3310    1.3350   -0.7740 o         1 MOL     -0.722452
    171 H80         4.7300    0.4230   -0.6070 hn        1 MOL      0.072751
    172 H81         4.1590    3.0480    0.3170 h1        1 MOL      0.053894
    173 H82         2.2110    1.9470    1.4060 hc        1 MOL      0.012658
    174 H83         2.7510    0.3450    0.8620 hc        1 MOL      0.012658
    175 H84         2.7140    1.0950   -1.4290 hc        1 MOL     -0.025856
    176 H85         1.9340    2.5950   -0.9200 hc        1 MOL     -0.025856
    177 N15         5.4100    0.9420    2.4340 n         1 MOL     -0.071290
    178 C54         6.1020    0.9060    3.7480 c3        1 MOL     -0.361453
    179 H86         5.3930    1.1540    4.5380 h1        1 MOL      0.134845
    180 H87         6.5050   -0.0920    3.9200 h1        1 MOL      0.134845
    181 H88         6.9150    1.6320    3.7510 h1        1 MOL      0.134845
    182 H89         5.4140    0.2090    1.7350 hn        1 MOL      0.107992
    183 Ca1        -1.8690   -0.7220   -1.2560 Ca        1 MOL      1.712736
    184 O25        -0.3300   -0.9250   -3.4010 oh        1 MOL     -0.800630
    185 H90        -0.3950   -1.8790   -3.4550 ho        1 MOL      0.385793
    186 H91        -0.6320   -0.6210   -4.2620 ho        1 MOL      0.385793
    187 O26        -1.0570   -3.3470   -1.7620 oh        1 MOL     -0.800630
    188 H92        -1.8030   -3.8850   -1.4710 ho        1 MOL      0.385793
    189 H93        -0.6280   -3.8670   -2.4370 ho        1 MOL      0.385793
@<TRIPOS>BOND
     1    1    2 1   
     2    1    4 1   
     3    1    5 1   
     4    1    6 1   
     5    2    3 2   
     6    2    7 1   
     7    7    8 1   
     8    7   15 1   
     9    8    9 1   
    10    8   11 1   
    11    8   16 1   
    12    9   10 2   
    13    9   19 1   
    14   11   12 1   
    15   11   17 1   
    16   11   18 1   
    17   12   13 1   
    18   12   14 1   
    19   19   20 1   
    20   19   28 1   
    21   20   21 1   
    22   20   23 1   
    23   20   29 1   
    24   21   22 2   
    25   21   41 1   
    26   23   24 1   
    27   23   30 1   
    28   23   31 1   
    29   24   25 1   
    30   24   32 1   
    31   24   33 1   
    32   25   26 1   
    33   25   34 1   
    34   25   35 1   
    35   26   27 1   
    36   26   36 1   
    37   26   37 1   
    38   27   38 1   
    39   27   39 1   
    40   27   40 1   
    41   41   42 1   
    42   41   49 1   
    43   42   43 1   
    44   42   45 1   
    45   42   50 1   
    46   43   44 2   
    47   43   53 1   
    48   45   46 1   
    49   45   51 1   
    50   45   52 1   
    51   46   47 1   
    52   46   48 1   
    53   53   54 1   
    54   53   57 1   
    55   54   55 1   
    56   54   58 1   
    57   54   59 1   
    58   55   56 2   
    59   55   60 1   
    60   60   61 1   
    61   60   68 1   
    62   61   62 1   
    63   61   64 1   
    64   61   69 1   
    65   62   63 2   
    66   62   72 1   
    67   64   65 1   
    68   64   70 1   
    69   64   71 1   
    70   65   66 1   
    71   65   67 1   
    72   72   73 1   
    73   72   76 1   
    74   73   74 1   
    75   73   77 1   
    76   73   78 1   
    77   74   75 2   
    78   74   79 1   
    79   79   80 1   
    80   79   86 1   
    81   80   81 1   
    82   80   83 1   
    83   80   87 1   
    84   81   82 2   
    85   81   93 1   
    86   83   84 1   
    87   83   85 1   
    88   83   88 1   
    89   84   90 1   
    90   84   91 1   
    91   84   92 1   
    92   85   89 1   
    93   93   94 1   
    94   93  101 1   
    95   94   95 1   
    96   94   97 1   
    97   94  102 1   
    98   95   96 2   
    99   95  112 1   
   100   97   98 1   
   101   97   99 1   
   102   97  103 1   
   103   98  100 1   
   104   98  104 1   
   105   98  105 1   
   106   99  106 1   
   107   99  107 1   
   108   99  108 1   
   109  100  109 1   
   110  100  110 1   
   111  100  111 1   
   112  112  113 1   
   113  112  119 1   
   114  113  114 1   
   115  113  116 1   
   116  113  120 1   
   117  114  115 2   
   118  114  126 1   
   119  116  117 1   
   120  116  118 1   
   121  116  121 1   
   122  117  123 1   
   123  117  124 1   
   124  117  125 1   
   125  118  122 1   
   126  126  127 1   
   127  126  133 1   
   128  127  128 1   
   129  127  130 1   
   130  127  134 1   
   131  128  129 2   
   132  128  140 1   
   133  130  131 1   
   134  130  132 1   
   135  130  135 1   
   136  131  137 1   
   137  131  138 1   
   138  131  139 1   
   139  132  136 1   
   140  140  141 1   
   141  140  149 1   
   142  141  142 1   
   143  141  144 1   
   144  141  150 1   
   145  142  143 2   
   146  142  162 1   
   147  144  145 1   
   148  144  151 1   
   149  144  152 1   
   150  145  146 1   
   151  145  153 1   
   152  145  154 1   
   153  146  147 1   
   154  146  155 1   
   155  146  156 1   
   156  147  148 1   
   157  147  157 1   
   158  147  158 1   
   159  148  159 1   
   160  148  160 1   
   161  148  161 1   
   162  162  163 1   
   163  162  171 1   
   164  163  164 1   
   165  163  166 1   
   166  163  172 1   
   167  164  165 2   
   168  164  177 1   
   169  166  167 1   
   170  166  173 1   
   171  166  174 1   
   172  167  168 1   
   173  167  175 1   
   174  167  176 1   
   175  168  169 1   
   176  168  170 1   
   177  177  178 1   
   178  177  182 1   
   179  178  179 1   
   180  178  180 1   
   181  178  181 1   
   182  184  185 1   
   183  184  186 1   
   184  187  188 1   
   185  187  189 1   
@<TRIPOS>SUBSTRUCTURE
     1 MOL         1 TEMP              0 ****  ****    0 ROOT
