@<TRIPOS>MOLECULE
MOL
  186   183     1     0     0
SMALL
resp


@<TRIPOS>ATOM
      1 C1          0.2690   -2.3050    6.2360 c3        1 MOL     -0.209989
      2 C2          0.7550   -2.2200    4.7570 c         1 MOL      0.707166
      3 O1         -0.0840   -2.2790    3.9050 o         1 MOL     -0.537729
      4 H1          0.7410   -1.5130    6.8190 hc        1 MOL      0.042104
      5 H2         -0.8130   -2.1850    6.2700 hc        1 MOL      0.042104
      6 H3          0.5420   -3.2740    6.6530 hc        1 MOL      0.042104
      7 N1          2.0630   -1.9920    4.5040 n         1 MOL     -0.692766
      8 C3          2.6740   -1.9480    3.1570 c3        1 MOL      0.268885
      9 C4          3.1030   -3.2420    2.5770 c         1 MOL      0.551068
     10 O2          4.1040   -3.8490    3.0370 o         1 MOL     -0.571671
     11 C5          3.7300   -0.7940    3.0810 c3        1 MOL     -0.403256
     12 C6          4.3180   -0.4460    1.7060 c         1 MOL      0.944510
     13 O3          5.3230    0.1920    1.6420 o         1 MOL     -0.727461
     14 O4          3.7820   -1.0110    0.7280 o         1 MOL     -0.727461
     15 H4          2.6220   -1.9310    5.3450 hn        1 MOL      0.330192
     16 H5          1.7840   -1.6670    2.6120 h1        1 MOL      0.007542
     17 H6          4.5300   -1.0600    3.7780 hc        1 MOL      0.089750
     18 H7          3.2210    0.1010    3.4320 hc        1 MOL      0.089750
     19 N2          2.3320   -3.7390    1.5890 n         1 MOL     -0.381164
     20 C7          2.6060   -5.0580    1.0780 c3        1 MOL     -0.114002
     21 C8          3.8430   -5.1370    0.1520 c         1 MOL      0.596210
     22 O5          4.3310   -6.2440   -0.0910 o         1 MOL     -0.583493
     23 C9          1.2410   -5.5310    0.4680 c3        1 MOL      0.240232
     24 C10         0.1620   -5.7270    1.5980 c3        1 MOL      0.003044
     25 C11         1.2180   -6.8310   -0.3680 c3        1 MOL     -0.321211
     26 C12        -1.2810   -5.9820    1.1330 c3        1 MOL     -0.164058
     27 H8          1.5510   -3.2410    1.1800 hn        1 MOL      0.206222
     28 H9          2.8220   -5.7280    1.9050 h1        1 MOL      0.060897
     29 H10         1.0200   -4.7190   -0.2210 hc        1 MOL      0.029803
     30 H11         0.1120   -4.8320    2.2150 hc        1 MOL     -0.001341
     31 H12         0.4320   -6.5370    2.2720 hc        1 MOL     -0.001341
     32 H13         0.2480   -7.1400   -0.7590 hc        1 MOL      0.068600
     33 H14         1.9720   -6.6510   -1.1390 hc        1 MOL      0.068600
     34 H15         1.5870   -7.6540    0.2300 hc        1 MOL      0.068600
     35 H16        -1.9040   -6.0250    2.0290 hc        1 MOL      0.042289
     36 H17        -1.6810   -5.2440    0.4350 hc        1 MOL      0.042289
     37 H18        -1.3900   -6.8950    0.5620 hc        1 MOL      0.042289
     38 N3          4.2490   -4.0080   -0.4540 n         1 MOL     -0.488558
     39 C13         5.2310   -3.9160   -1.5250 c3        1 MOL      0.170483
     40 C14         6.3770   -2.9040   -1.4440 c         1 MOL      0.406321
     41 O6          7.2650   -2.8120   -2.2980 o         1 MOL     -0.533683
     42 C15         4.5360   -3.8300   -2.8730 c3        1 MOL     -0.188393
     43 C16         3.6230   -2.6520   -3.0880 c         1 MOL      0.788080
     44 O7          3.6720   -1.6290   -2.4210 o         1 MOL     -0.720511
     45 O8          2.8060   -2.6630   -4.0250 o         1 MOL     -0.720511
     46 H19         3.6790   -3.1990   -0.2330 hn        1 MOL      0.293351
     47 H20         5.7300   -4.8860   -1.6250 h1        1 MOL      0.058159
     48 H21         4.0140   -4.7700   -3.0580 hc        1 MOL      0.041022
     49 H22         5.3030   -3.8350   -3.6460 hc        1 MOL      0.041022
     50 N4          6.4090   -2.0450   -0.3910 n         1 MOL     -0.278495
     51 C17         7.6510   -1.5460    0.2190 c3        1 MOL     -0.038682
     52 C18         8.0730   -0.1990   -0.3640 c         1 MOL      0.483387
     53 O9          9.2330    0.2040   -0.2340 o         1 MOL     -0.606092
     54 H23         5.5400   -1.7880    0.0470 hn        1 MOL      0.172875
     55 H24         8.4610   -2.2580    0.3680 h1        1 MOL      0.062888
     56 H25         7.3400   -1.3040    1.2370 h1        1 MOL      0.062888
     57 N5          7.0990    0.4960   -0.9240 n         1 MOL     -0.153648
     58 C19         7.3120    1.8440   -1.4400 c3        1 MOL     -0.099147
     59 C20         7.2750    2.9210   -0.3300 c         1 MOL      0.526563
     60 O10         7.6270    4.0270   -0.5820 o         1 MOL     -0.558213
     61 C21         6.3090    2.1720   -2.5840 c3        1 MOL     -0.304869
     62 C22         4.8780    1.8960   -2.1790 c         1 MOL      0.883336
     63 O11         4.4250    1.7700   -1.0120 o         1 MOL     -0.777739
     64 O12         4.1340    1.6000   -3.1320 o         1 MOL     -0.777739
     65 H26         6.1400    0.2020   -0.9020 hn        1 MOL      0.156930
     66 H27         8.3170    1.9660   -1.8380 h1        1 MOL      0.108388
     67 H28         6.4890    1.5240   -3.4490 hc        1 MOL      0.097924
     68 H29         6.3600    3.1850   -2.9740 hc        1 MOL      0.097924
     69 N6          6.8750    2.5840    0.9510 n         1 MOL     -0.320105
     70 C23         6.5580    3.4430    2.0540 c3        1 MOL     -0.173140
     71 C24         5.1600    4.0140    2.0440 c         1 MOL      0.431219
     72 O13         4.7510    4.8390    2.9250 o         1 MOL     -0.618436
     73 H30         6.6110    1.6180    1.0440 hn        1 MOL      0.258852
     74 H31         7.3860    4.1390    2.1880 h1        1 MOL      0.110164
     75 H32         6.6000    2.7680    2.9070 h1        1 MOL      0.110164
     76 N7          4.3060    3.5550    1.1270 n         1 MOL     -0.030815
     77 C25         2.9220    4.0350    1.0300 c3        1 MOL     -0.129492
     78 C26         1.8580    2.9600    1.3340 c         1 MOL      0.653288
     79 O14         2.0070    1.8020    1.0450 o         1 MOL     -0.671377
     80 C27         2.6650    4.6930   -0.3590 c3        1 MOL      0.346796
     81 C28         3.5720    5.9280   -0.6120 c3        1 MOL     -0.196406
     82 C29         3.0930    6.7090   -1.8550 c         1 MOL      0.733973
     83 N8          3.7800    7.6910   -2.3620 n         1 MOL     -0.843135
     84 O15         2.0290    6.4030   -2.4190 o         1 MOL     -0.600414
     85 H33         4.6850    2.8500    0.5100 hn        1 MOL      0.132568
     86 H34         2.7470    4.8870    1.6810 h1        1 MOL      0.078146
     87 H35         1.6730    5.1450   -0.2510 hc        1 MOL     -0.102207
     88 H36         2.6940    3.9950   -1.1970 hc        1 MOL     -0.102207
     89 H37         4.5900    5.5790   -0.7990 hc        1 MOL      0.033151
     90 H38         3.4390    6.5210    0.2910 hc        1 MOL      0.033151
     91 H39         4.7170    7.9640   -2.0950 hn        1 MOL      0.362911
     92 H40         3.4900    7.9260   -3.3050 hn        1 MOL      0.362911
     93 N9          0.7640    3.3170    1.9850 n         1 MOL     -0.523174
     94 C30        -0.4450    2.5090    2.1620 c3        1 MOL     -0.030337
     95 C31        -1.6530    3.1550    1.4150 c         1 MOL      0.423428
     96 O16        -2.3270    4.1210    1.8710 o         1 MOL     -0.580213
     97 C32        -0.7090    2.1780    3.5900 c3        1 MOL      0.263180
     98 C33        -2.0760    1.5460    3.8620 c3        1 MOL     -0.237937
     99 C34         0.4040    1.3520    4.2170 c3        1 MOL     -0.237937
    100 H41         0.6550    4.2300    2.3930 hn        1 MOL      0.298500
    101 H42        -0.3440    1.5230    1.6960 h1        1 MOL      0.164285
    102 H43        -0.7520    3.0560    4.2310 hc        1 MOL     -0.029316
    103 H44        -2.8730    2.2250    3.5860 hc        1 MOL      0.047470
    104 H45        -2.1620    0.6540    3.2370 hc        1 MOL      0.047470
    105 H46        -2.1460    1.3720    4.9380 hc        1 MOL      0.047470
    106 H47         1.4110    1.7360    4.0490 hc        1 MOL      0.047470
    107 H48         0.2450    1.3830    5.2950 hc        1 MOL      0.047470
    108 H49         0.2960    0.2870    4.0060 hc        1 MOL      0.047470
    109 N10        -2.0340    2.6050    0.2880 n         1 MOL     -0.288565
    110 C35        -3.2090    3.1090   -0.4940 c3        1 MOL      0.218231
    111 C36        -4.4110    2.2800   -0.1740 c         1 MOL      0.411058
    112 O17        -4.3240    1.2620    0.5180 o         1 MOL     -0.325446
    113 C37        -2.8910    3.1810   -2.0180 c3        1 MOL     -0.464039
    114 C38        -3.1200    1.8400   -2.7180 c         1 MOL      0.678776
    115 N11        -2.2760    0.8300   -2.5970 n         1 MOL     -0.747979
    116 O18        -4.1410    1.6750   -3.4170 o         1 MOL     -0.595533
    117 H50        -1.4660    1.8600   -0.0910 hn        1 MOL      0.199978
    118 H51        -3.4080    4.1230   -0.1590 h1        1 MOL      0.061624
    119 H52        -1.8340    3.4650   -2.0200 hc        1 MOL      0.136354
    120 H53        -3.5010    4.0210   -2.3600 hc        1 MOL      0.136354
    121 H54        -1.4530    0.9000   -2.0210 hn        1 MOL      0.391365
    122 H55        -2.3490    0.0540   -3.2390 hn        1 MOL      0.391365
    123 N12        -5.5820    2.7410   -0.6510 n         1 MOL     -0.613050
    124 C39        -6.8040    2.0380   -0.2030 c3        1 MOL      0.307894
    125 C40        -6.8140    0.4920   -0.4590 c         1 MOL      0.500962
    126 O19        -7.3380   -0.2370    0.3440 o         1 MOL     -0.529521
    127 C41        -8.1230    2.6870   -0.7610 c3        1 MOL     -0.170497
    128 C42        -9.3430    2.2670   -0.0770 ca        1 MOL      0.146529
    129 C43        -9.6440    2.5860    1.2780 ca        1 MOL     -0.293898
    130 C44       -10.2410    1.5250   -0.8890 ca        1 MOL     -0.293898
    131 C45       -10.7530    2.0330    1.9040 ca        1 MOL     -0.154650
    132 C46       -11.3360    0.9740   -0.2010 ca        1 MOL     -0.154650
    133 C47       -11.5860    1.1920    1.1440 ca        1 MOL      0.297418
    134 O20       -12.8120    0.8160    1.6180 oh        1 MOL     -0.526311
    135 H56        -5.6060    3.6260   -1.1280 hn        1 MOL      0.319261
    136 H57        -6.8900    2.2870    0.8540 h1        1 MOL      0.018665
    137 H58        -8.1040    2.5120   -1.8260 hc        1 MOL      0.049318
    138 H59        -8.0060    3.7650   -0.6290 hc        1 MOL      0.049318
    139 H60        -8.9130    3.0280    1.9270 ha        1 MOL      0.173088
    140 H61        -9.8760    1.1610   -1.8420 ha        1 MOL      0.173088
    141 H62       -11.0240    2.2360    2.9350 ha        1 MOL      0.120081
    142 H63       -12.0420    0.4020   -0.7780 ha        1 MOL      0.120081
    143 H64       -13.3820    0.4000    0.9680 ho        1 MOL      0.360122
    144 N13        -6.2770    0.0850   -1.5530 n         1 MOL     -0.405341
    145 C48        -6.1750   -1.3990   -1.8180 c3        1 MOL      0.018477
    146 C49        -5.4290   -2.2100   -0.6760 c         1 MOL      0.262433
    147 O21        -5.7660   -3.3890   -0.3640 o         1 MOL     -0.504605
    148 C50        -5.5460   -1.5210   -3.2690 c3        1 MOL      0.010104
    149 C51        -5.5370   -3.0040   -3.6470 c3        1 MOL     -0.335398
    150 C52        -5.1150   -3.3030   -5.1090 c         1 MOL      0.760621
    151 O22        -3.9120   -3.6200   -5.3710 o         1 MOL     -0.744328
    152 O23        -5.9170   -3.2920   -6.0720 o         1 MOL     -0.744328
    153 H65        -5.9080    0.8210   -2.1200 hn        1 MOL      0.252435
    154 H66        -7.1560   -1.8850   -1.8580 h1        1 MOL      0.102804
    155 H67        -4.5570   -1.0760   -3.3270 hc        1 MOL      0.034350
    156 H68        -6.2180   -1.0290   -3.9700 hc        1 MOL      0.034350
    157 H69        -6.5570   -3.3890   -3.5410 hc        1 MOL      0.055800
    158 H70        -4.8940   -3.4780   -2.9100 hc        1 MOL      0.055800
    159 N14        -4.4510   -1.5900   -0.0850 n         1 MOL      0.062018
    160 C53        -3.6590   -2.1900    0.9710 c3        1 MOL     -0.001068
    161 C54        -4.3280   -1.9860    2.3250 c         1 MOL      0.415056
    162 O24        -4.4640   -2.8950    3.0610 o         1 MOL     -0.538218
    163 C55        -2.2650   -1.6030    0.9430 c3        1 MOL      0.084972
    164 C56        -1.4570   -2.1090   -0.3070 c3        1 MOL      0.143144
    165 C57        -0.1840   -1.2310   -0.4930 c         1 MOL      0.466014
    166 O25         0.8710   -1.8050   -0.8710 o         1 MOL     -0.636389
    167 O26        -0.2120    0.0390   -0.3370 o         1 MOL     -0.636389
    168 H71        -4.2240   -0.6700   -0.4510 hn        1 MOL      0.067178
    169 H72        -3.5190   -3.2660    0.8500 h1        1 MOL      0.049244
    170 H73        -1.7030   -1.9150    1.8180 hc        1 MOL     -0.030513
    171 H74        -2.3010   -0.5220    0.8640 hc        1 MOL     -0.030513
    172 H75        -2.0240   -2.0470   -1.2370 hc        1 MOL     -0.016094
    173 H76        -1.2850   -3.1880   -0.2790 hc        1 MOL     -0.016094
    174 N15        -4.9740   -0.8170    2.5070 n         1 MOL      0.033304
    175 C58        -5.7710   -0.5600    3.6700 c3        1 MOL     -0.274240
    176 H77        -5.2460    0.1370    4.3230 h1        1 MOL      0.082417
    177 H78        -6.7250   -0.1270    3.3690 h1        1 MOL      0.082417
    178 H79        -5.9470   -1.4940    4.2050 h1        1 MOL      0.082417
    179 H80        -5.0810   -0.2050    1.7200 hn        1 MOL     -0.011833
    180 Ca1         2.3370    0.3170   -1.1910 Ca        1 MOL      1.710158
    181 O27         1.2500   -0.4380   -3.7060 oh        1 MOL     -0.765991
    182 H81         2.0300   -0.9780   -3.8610 ho        1 MOL      0.370377
    183 H82         1.0740   -0.0330   -4.5610 ho        1 MOL      0.370377
    184 O28         0.8170    1.9230   -2.5710 oh        1 MOL     -0.765991
    185 H83         1.0220    1.7070   -3.4810 ho        1 MOL      0.370377
    186 H84         0.4990    2.8230   -2.6090 ho        1 MOL      0.370377
@<TRIPOS>BOND
     1    1    2 1   
     2    1    4 1   
     3    1    5 1   
     4    1    6 1   
     5    2    3 2   
     6    2    7 1   
     7    7    8 1   
     8    7   15 1   
     9    8    9 1   
    10    8   11 1   
    11    8   16 1   
    12    9   10 2   
    13    9   19 1   
    14   11   12 1   
    15   11   17 1   
    16   11   18 1   
    17   12   13 1   
    18   12   14 1   
    19   19   20 1   
    20   19   27 1   
    21   20   21 1   
    22   20   23 1   
    23   20   28 1   
    24   21   22 2   
    25   21   38 1   
    26   23   24 1   
    27   23   25 1   
    28   23   29 1   
    29   24   26 1   
    30   24   30 1   
    31   24   31 1   
    32   25   32 1   
    33   25   33 1   
    34   25   34 1   
    35   26   35 1   
    36   26   36 1   
    37   26   37 1   
    38   38   39 1   
    39   38   46 1   
    40   39   40 1   
    41   39   42 1   
    42   39   47 1   
    43   40   41 2   
    44   40   50 1   
    45   42   43 1   
    46   42   48 1   
    47   42   49 1   
    48   43   44 1   
    49   43   45 1   
    50   50   51 1   
    51   50   54 1   
    52   51   52 1   
    53   51   55 1   
    54   51   56 1   
    55   52   53 2   
    56   52   57 1   
    57   57   58 1   
    58   57   65 1   
    59   58   59 1   
    60   58   61 1   
    61   58   66 1   
    62   59   60 2   
    63   59   69 1   
    64   61   62 1   
    65   61   67 1   
    66   61   68 1   
    67   62   63 1   
    68   62   64 1   
    69   69   70 1   
    70   69   73 1   
    71   70   71 1   
    72   70   74 1   
    73   70   75 1   
    74   71   72 2   
    75   71   76 1   
    76   76   77 1   
    77   76   85 1   
    78   77   78 1   
    79   77   80 1   
    80   77   86 1   
    81   78   79 2   
    82   78   93 1   
    83   80   81 1   
    84   80   87 1   
    85   80   88 1   
    86   81   82 1   
    87   81   89 1   
    88   81   90 1   
    89   82   83 1   
    90   82   84 2   
    91   83   91 1   
    92   83   92 1   
    93   93   94 1   
    94   93  100 1   
    95   94   95 1   
    96   94   97 1   
    97   94  101 1   
    98   95   96 2   
    99   95  109 1   
   100   97   98 1   
   101   97   99 1   
   102   97  102 1   
   103   98  103 1   
   104   98  104 1   
   105   98  105 1   
   106   99  106 1   
   107   99  107 1   
   108   99  108 1   
   109  109  110 1   
   110  109  117 1   
   111  110  111 1   
   112  110  113 1   
   113  110  118 1   
   114  111  112 2   
   115  111  123 1   
   116  113  114 1   
   117  113  119 1   
   118  113  120 1   
   119  114  115 1   
   120  114  116 2   
   121  115  121 1   
   122  115  122 1   
   123  123  124 1   
   124  123  135 1   
   125  124  125 1   
   126  124  127 1   
   127  124  136 1   
   128  125  126 2   
   129  125  144 1   
   130  127  128 1   
   131  127  137 1   
   132  127  138 1   
   133  128  129 ar  
   134  128  130 ar  
   135  129  131 ar  
   136  129  139 1   
   137  130  132 ar  
   138  130  140 1   
   139  131  133 ar  
   140  131  141 1   
   141  132  133 ar  
   142  132  142 1   
   143  133  134 1   
   144  134  143 1   
   145  144  145 1   
   146  144  153 1   
   147  145  146 1   
   148  145  148 1   
   149  145  154 1   
   150  146  147 2   
   151  146  159 1   
   152  148  149 1   
   153  148  155 1   
   154  148  156 1   
   155  149  150 1   
   156  149  157 1   
   157  149  158 1   
   158  150  151 1   
   159  150  152 1   
   160  159  160 1   
   161  159  168 1   
   162  160  161 1   
   163  160  163 1   
   164  160  169 1   
   165  161  162 2   
   166  161  174 1   
   167  163  164 1   
   168  163  170 1   
   169  163  171 1   
   170  164  165 1   
   171  164  172 1   
   172  164  173 1   
   173  165  166 1   
   174  165  167 1   
   175  174  175 1   
   176  174  179 1   
   177  175  176 1   
   178  175  177 1   
   179  175  178 1   
   180  181  182 1   
   181  181  183 1   
   182  184  185 1   
   183  184  186 1   
@<TRIPOS>SUBSTRUCTURE
     1 MOL         1 TEMP              0 ****  ****    0 ROOT
