@<TRIPOS>MOLECULE
MOL
  189   185     1     0     0
SMALL
resp


@<TRIPOS>ATOM
      1 C1         -0.8260    1.7390    6.3260 c3        1 MOL     -0.302828
      2 C2         -1.1290    1.6390    4.8510 c         1 MOL      0.744810
      3 O1         -0.3290    2.1510    4.1360 o         1 MOL     -0.630874
      4 H1         -1.2210    2.6770    6.7150 hc        1 MOL      0.075978
      5 H2         -1.2910    0.9050    6.8500 hc        1 MOL      0.075978
      6 H3          0.2530    1.7090    6.4790 hc        1 MOL      0.075978
      7 N1         -2.2110    1.0570    4.3560 n         1 MOL     -0.655091
      8 C3         -2.6380    1.0570    2.9540 c3        1 MOL      0.385181
      9 C4         -2.9340    2.5190    2.5580 c         1 MOL      0.387329
     10 O2         -4.0610    2.9900    2.6820 o         1 MOL     -0.484624
     11 C5         -3.7890    0.0820    2.8750 c3        1 MOL     -0.461751
     12 C6         -4.4500    0.1180    1.4930 c         1 MOL      0.783581
     13 O3         -3.8900    0.5140    0.4830 o         1 MOL     -0.673437
     14 O4         -5.6180   -0.5000    1.4220 o         1 MOL     -0.673437
     15 H4         -2.7420    0.4510    4.9620 hn        1 MOL      0.329958
     16 H5         -1.8600    0.6660    2.3040 h1        1 MOL     -0.041513
     17 H6         -4.5510    0.4180    3.5850 hc        1 MOL      0.109349
     18 H7         -3.4260   -0.9420    2.9660 hc        1 MOL      0.109349
     19 N2         -1.9130    3.3220    2.0510 n         1 MOL     -0.136362
     20 C7         -2.0140    4.7210    1.8260 c3        1 MOL     -0.064345
     21 C8         -2.9230    5.1270    0.6910 c         1 MOL      0.367552
     22 O5         -3.5790    6.1180    0.7210 o         1 MOL     -0.544458
     23 C9         -0.6030    5.2680    1.7260 c3        1 MOL     -0.117530
     24 C10         0.0520    5.0970    0.3160 c3        1 MOL      0.129988
     25 C11         1.4430    5.7560    0.0460 c3        1 MOL     -0.243634
     26 C12         1.3620    7.2960    0.3060 c3        1 MOL      0.191078
     27 N3          2.6690    7.9410    0.5900 n4        1 MOL     -0.456923
     28 H8         -1.0500    2.8030    1.9000 hn        1 MOL      0.172251
     29 H9         -2.4160    5.1830    2.7270 h1        1 MOL      0.088949
     30 H10        -0.0020    4.9070    2.5690 hc        1 MOL      0.055205
     31 H11        -0.7120    6.3340    1.9380 hc        1 MOL      0.055205
     32 H12        -0.6380    5.5710   -0.3790 hc        1 MOL      0.007535
     33 H13         0.0600    4.0540   -0.0120 hc        1 MOL      0.007535
     34 H14         1.6210    5.5380   -1.0120 hc        1 MOL      0.073032
     35 H15         2.1300    5.2650    0.7240 hc        1 MOL      0.073032
     36 H16         0.6250    7.4920    1.0900 hx        1 MOL      0.053523
     37 H17         0.9530    7.7720   -0.5910 hx        1 MOL      0.053523
     38 H18         3.0680    7.7010    1.4890 hn        1 MOL      0.344705
     39 H19         3.2870    7.6020   -0.1380 hn        1 MOL      0.344705
     40 H20         2.6770    8.9430    0.6230 hn        1 MOL      0.344705
     41 N4         -2.9210    4.3560   -0.3330 n         1 MOL     -0.069465
     42 C13        -3.7970    4.5690   -1.4710 c3        1 MOL      0.074023
     43 C14        -5.0780    3.8370   -1.5200 c         1 MOL      0.483685
     44 O6         -5.9520    4.3040   -2.2190 o         1 MOL     -0.554595
     45 C15        -2.9050    4.4190   -2.7930 c3        1 MOL     -0.268100
     46 C16        -2.0280    3.1890   -2.8120 c         1 MOL      0.921439
     47 O7         -2.3930    2.1500   -2.2130 o         1 MOL     -0.738565
     48 O8         -0.9100    3.2390   -3.3860 o         1 MOL     -0.738565
     49 H21        -2.2820    3.5820   -0.3240 hn        1 MOL     -0.022909
     50 H22        -4.0990    5.6170   -1.3940 h1        1 MOL      0.071607
     51 H23        -2.2010    5.2440   -2.7820 hc        1 MOL      0.049378
     52 H24        -3.4750    4.5120   -3.7170 hc        1 MOL      0.049378
     53 N5         -5.2670    2.7990   -0.7200 n         1 MOL     -0.081511
     54 C17        -6.6080    2.1320   -0.6210 c3        1 MOL     -0.235584
     55 C18        -6.9140    1.0240   -1.6780 c         1 MOL      0.623337
     56 O9         -7.3140    1.3740   -2.8180 o         1 MOL     -0.522225
     57 H25        -4.4830    2.5330   -0.1420 hn        1 MOL      0.134510
     58 H26        -7.3620    2.9180   -0.7440 h1        1 MOL      0.092185
     59 H27        -6.6140    1.7110    0.3890 h1        1 MOL      0.092185
     60 N6         -6.6480   -0.2340   -1.3660 n         1 MOL     -0.480746
     61 C19        -6.8720   -1.4280   -2.2190 c3        1 MOL     -0.017356
     62 C20        -6.9380   -2.7340   -1.4360 c         1 MOL      0.459963
     63 O10        -6.8820   -3.8030   -1.9860 o         1 MOL     -0.508168
     64 C21        -5.7490   -1.5000   -3.3060 c3        1 MOL      0.057258
     65 C22        -4.3610   -1.1390   -2.8140 c         1 MOL      0.576647
     66 O11        -3.6100   -0.3490   -3.4550 o         1 MOL     -0.651591
     67 O12        -3.9670   -1.6560   -1.7090 o         1 MOL     -0.651591
     68 H28        -6.2230   -0.4600   -0.4740 hn        1 MOL      0.223601
     69 H29        -7.8500   -1.3500   -2.6960 h1        1 MOL      0.086646
     70 H30        -6.0670   -0.8020   -4.0820 hc        1 MOL      0.011578
     71 H31        -5.8340   -2.4460   -3.8410 hc        1 MOL      0.011578
     72 N7         -6.9380   -2.7180   -0.1050 n         1 MOL     -0.223505
     73 C23        -6.8230   -3.8490    0.7590 c3        1 MOL     -0.304227
     74 C24        -5.4820   -4.5680    0.7650 c         1 MOL      0.543436
     75 O13        -5.2880   -5.6930    1.2390 o         1 MOL     -0.563984
     76 H32        -7.0960   -1.9240    0.4970 hn        1 MOL      0.265774
     77 H33        -7.5860   -4.5560    0.4170 h1        1 MOL      0.134558
     78 H34        -6.9470   -3.5530    1.8060 h1        1 MOL      0.134558
     79 N8         -4.4340   -3.8610    0.2330 n         1 MOL     -0.145269
     80 C25        -3.0720   -4.4450    0.0260 c3        1 MOL     -0.138217
     81 C26        -2.0120   -3.5030    0.3930 c         1 MOL      0.541861
     82 O14        -2.1830   -2.2920    0.3340 o         1 MOL     -0.554487
     83 C27        -2.7750   -5.0310   -1.3590 c3        1 MOL      0.387184
     84 C28        -3.6790   -6.1470   -1.7820 c3        1 MOL     -0.351495
     85 O15        -2.8420   -4.0360   -2.3280 oh        1 MOL     -0.561734
     86 H35        -4.6800   -2.9250   -0.0660 hn        1 MOL      0.132417
     87 H36        -3.0280   -5.1830    0.8270 h1        1 MOL      0.077214
     88 H37        -1.7600   -5.4140   -1.4410 h1        1 MOL      0.015688
     89 H38        -3.3690   -3.3310   -1.9460 ho        1 MOL      0.333850
     90 H39        -3.4080   -6.5120   -2.7710 hc        1 MOL      0.086413
     91 H40        -3.5540   -6.9810   -1.0820 hc        1 MOL      0.086413
     92 H41        -4.7290   -5.8770   -1.8350 hc        1 MOL      0.086413
     93 N9         -0.8390   -4.0130    0.7400 n         1 MOL     -0.475612
     94 C29         0.3710   -3.2460    1.2170 c3        1 MOL      0.034682
     95 C30         1.5350   -3.6110    0.3280 c         1 MOL      0.484717
     96 O16         1.8170   -4.7630    0.0800 o         1 MOL     -0.539175
     97 C31         0.5390   -3.5290    2.7560 c3        1 MOL      0.010302
     98 C32        -0.5170   -2.7310    3.6260 c3        1 MOL     -0.101208
     99 C33         1.9300   -3.2300    3.3340 c3        1 MOL     -0.125643
    100 C34        -0.5010   -2.9290    5.1210 c3        1 MOL      0.027798
    101 H42        -0.7050   -5.0170    0.6570 hn        1 MOL      0.269798
    102 H43         0.1890   -2.1850    1.0130 h1        1 MOL      0.072983
    103 H44         0.4290   -4.6060    2.9280 hc        1 MOL      0.051389
    104 H45        -1.5040   -3.0700    3.2940 hc        1 MOL      0.055314
    105 H46        -0.5910   -1.6620    3.4500 hc        1 MOL      0.055314
    106 H47         2.0730   -3.8410    4.2240 hc        1 MOL      0.032962
    107 H48         2.7010   -3.7530    2.7590 hc        1 MOL      0.032962
    108 H49         2.1110   -2.1700    3.5030 hc        1 MOL      0.032962
    109 H50         0.4520   -2.5740    5.5100 hc        1 MOL     -0.010195
    110 H51        -1.2400   -2.2840    5.5850 hc        1 MOL     -0.010195
    111 H52        -0.6380   -3.8970    5.6020 hc        1 MOL     -0.010195
    112 N10         2.0540   -2.5860   -0.3530 n         1 MOL     -0.167100
    113 C35         3.2460   -2.7320   -1.2050 c3        1 MOL      0.010116
    114 C36         4.5320   -2.6510   -0.3030 c         1 MOL      0.132320
    115 O17         4.4770   -2.2990    0.8680 o         1 MOL     -0.209030
    116 C37         3.4970   -1.6090   -2.2130 c3        1 MOL      0.161387
    117 C38         2.5450   -1.6540   -3.4080 c3        1 MOL     -0.559605
    118 O18         3.2890   -0.3490   -1.5890 oh        1 MOL     -0.355449
    119 H53         1.7580   -1.6520   -0.1010 hn        1 MOL      0.139133
    120 H54         3.3230   -3.6810   -1.7360 h1        1 MOL      0.103581
    121 H55         4.5320   -1.6310   -2.5510 h1        1 MOL      0.085672
    122 H56         2.3790   -0.3530   -1.2930 ho        1 MOL      0.112813
    123 H57         2.7720   -0.8950   -4.1530 hc        1 MOL      0.165078
    124 H58         2.6030   -2.6750   -3.7770 hc        1 MOL      0.165078
    125 H59         1.5340   -1.3880   -3.0970 hc        1 MOL      0.165078
    126 N11         5.7530   -2.9600   -0.8590 n         1 MOL     -0.224910
    127 C39         7.1150   -2.6130   -0.3590 c3        1 MOL     -0.202954
    128 C40         7.1940   -1.1890    0.1980 c         1 MOL      0.373158
    129 O19         7.5860   -0.9560    1.3540 o         1 MOL     -0.473586
    130 C41         8.1630   -2.9100   -1.4270 c3        1 MOL      0.307655
    131 C42         8.5760   -4.3930   -1.5140 c3        1 MOL     -0.399264
    132 O20         7.6730   -2.4860   -2.6770 oh        1 MOL     -0.643828
    133 H60         5.6790   -3.3010   -1.8030 hn        1 MOL      0.239515
    134 H61         7.2810   -3.2560    0.4990 h1        1 MOL      0.158960
    135 H62         9.0520   -2.3200   -1.2170 h1        1 MOL      0.046376
    136 H63         8.2030   -2.9010   -3.3630 ho        1 MOL      0.416666
    137 H64         8.2600   -4.8640   -0.5750 hc        1 MOL      0.117746
    138 H65         8.1580   -4.9640   -2.3440 hc        1 MOL      0.117746
    139 H66         9.6660   -4.4620   -1.6040 hc        1 MOL      0.117746
    140 N12         6.6970   -0.2240   -0.6080 n         1 MOL     -0.113361
    141 C43         6.5350    1.2080   -0.3000 c3        1 MOL     -0.236356
    142 C44         5.6900    1.4430    0.9750 c         1 MOL      0.446469
    143 O21         5.9460    2.4200    1.6720 o         1 MOL     -0.550451
    144 C45         5.8680    1.9310   -1.5040 c3        1 MOL     -0.073570
    145 C46         6.4480    1.6390   -2.8550 c3        1 MOL     -0.013172
    146 C47         7.8990    2.1190   -3.0560 c3        1 MOL      0.054928
    147 C48         8.2350    2.1670   -4.5820 c3        1 MOL     -0.039312
    148 N13         9.6400    2.6610   -4.6760 n4        1 MOL     -0.151956
    149 H67         6.2780   -0.5740   -1.4580 hn        1 MOL      0.114888
    150 H68         7.5040    1.6030    0.0050 h1        1 MOL      0.124192
    151 H69         5.7790    2.9990   -1.3390 hc        1 MOL      0.044558
    152 H70         4.8390    1.5590   -1.5380 hc        1 MOL      0.044558
    153 H71         5.8520    2.1100   -3.6440 hc        1 MOL      0.028893
    154 H72         6.3100    0.5600   -2.8970 hc        1 MOL      0.028893
    155 H73         8.6720    1.5000   -2.5990 hc        1 MOL      0.010736
    156 H74         8.0650    3.1340   -2.7040 hc        1 MOL      0.010736
    157 H75         7.5380    2.8070   -5.1130 hx        1 MOL      0.091963
    158 H76         8.2600    1.1230   -4.9030 hx        1 MOL      0.091963
    159 H77         9.8700    3.0250   -5.5800 hn        1 MOL      0.246928
    160 H78         9.7390    3.4070   -3.9970 hn        1 MOL      0.246928
    161 H79        10.2830    1.9500   -4.3340 hn        1 MOL      0.246928
    162 N14         4.7290    0.6000    1.2850 n         1 MOL     -0.119344
    163 C49         3.8450    0.7390    2.4840 c3        1 MOL     -0.148050
    164 C50         4.3980   -0.0550    3.7420 c         1 MOL      0.484799
    165 O22         4.3710    0.4410    4.9180 o         1 MOL     -0.532352
    166 C51         2.4190    0.4010    2.0590 c3        1 MOL      0.028918
    167 C52         1.7540    1.4310    1.1180 c3        1 MOL      0.080571
    168 C53         0.6000    0.8770    0.2840 c         1 MOL      0.669230
    169 O23         0.8470    0.0280   -0.5850 o         1 MOL     -0.677002
    170 O24        -0.5760    1.1840    0.4770 o         1 MOL     -0.677002
    171 H80         4.4750   -0.1150    0.6130 hn        1 MOL      0.365304
    172 H81         3.7830    1.7840    2.7890 h1        1 MOL      0.080475
    173 H82         1.8230    0.3770    2.9710 hc        1 MOL      0.034411
    174 H83         2.4430   -0.5280    1.4760 hc        1 MOL      0.034411
    175 H84         2.4870    1.9310    0.4820 hc        1 MOL     -0.028434
    176 H85         1.3440    2.2420    1.7250 hc        1 MOL     -0.028434
    177 N15         4.9420   -1.3130    3.5590 n         1 MOL     -0.128661
    178 C54         5.7280   -2.0700    4.5020 c3        1 MOL     -0.312964
    179 H86         6.2570   -2.8660    3.9780 h1        1 MOL      0.117311
    180 H87         6.4510   -1.4120    4.9850 h1        1 MOL      0.117311
    181 H88         5.0730   -2.5060    5.2560 h1        1 MOL      0.117311
    182 H89         4.8830   -1.6760    2.6270 hn        1 MOL      0.081156
    183 Ca1        -1.8970   -0.1020   -1.2420 Ca        1 MOL      1.731271
    184 O25         0.2110    0.9790   -3.5270 oh        1 MOL     -0.832256
    185 H90         1.1220    1.1210   -3.2460 ho        1 MOL      0.378934
    186 H91        -0.1770    1.8500   -3.5010 ho        1 MOL      0.378934
    187 O26        -0.7970   -2.0900   -2.5450 oh        1 MOL     -0.832256
    188 H92        -0.2120   -2.0630   -3.3040 ho        1 MOL      0.378934
    189 H93        -1.4100   -2.8010   -2.7560 ho        1 MOL      0.378934
@<TRIPOS>BOND
     1    1    2 1   
     2    1    4 1   
     3    1    5 1   
     4    1    6 1   
     5    2    3 2   
     6    2    7 1   
     7    7    8 1   
     8    7   15 1   
     9    8    9 1   
    10    8   11 1   
    11    8   16 1   
    12    9   10 2   
    13    9   19 1   
    14   11   12 1   
    15   11   17 1   
    16   11   18 1   
    17   12   13 1   
    18   12   14 1   
    19   19   20 1   
    20   19   28 1   
    21   20   21 1   
    22   20   23 1   
    23   20   29 1   
    24   21   22 2   
    25   21   41 1   
    26   23   24 1   
    27   23   30 1   
    28   23   31 1   
    29   24   25 1   
    30   24   32 1   
    31   24   33 1   
    32   25   26 1   
    33   25   34 1   
    34   25   35 1   
    35   26   27 1   
    36   26   36 1   
    37   26   37 1   
    38   27   38 1   
    39   27   39 1   
    40   27   40 1   
    41   41   42 1   
    42   41   49 1   
    43   42   43 1   
    44   42   45 1   
    45   42   50 1   
    46   43   44 2   
    47   43   53 1   
    48   45   46 1   
    49   45   51 1   
    50   45   52 1   
    51   46   47 1   
    52   46   48 1   
    53   53   54 1   
    54   53   57 1   
    55   54   55 1   
    56   54   58 1   
    57   54   59 1   
    58   55   56 2   
    59   55   60 1   
    60   60   61 1   
    61   60   68 1   
    62   61   62 1   
    63   61   64 1   
    64   61   69 1   
    65   62   63 2   
    66   62   72 1   
    67   64   65 1   
    68   64   70 1   
    69   64   71 1   
    70   65   66 1   
    71   65   67 1   
    72   72   73 1   
    73   72   76 1   
    74   73   74 1   
    75   73   77 1   
    76   73   78 1   
    77   74   75 2   
    78   74   79 1   
    79   79   80 1   
    80   79   86 1   
    81   80   81 1   
    82   80   83 1   
    83   80   87 1   
    84   81   82 2   
    85   81   93 1   
    86   83   84 1   
    87   83   85 1   
    88   83   88 1   
    89   84   90 1   
    90   84   91 1   
    91   84   92 1   
    92   85   89 1   
    93   93   94 1   
    94   93  101 1   
    95   94   95 1   
    96   94   97 1   
    97   94  102 1   
    98   95   96 2   
    99   95  112 1   
   100   97   98 1   
   101   97   99 1   
   102   97  103 1   
   103   98  100 1   
   104   98  104 1   
   105   98  105 1   
   106   99  106 1   
   107   99  107 1   
   108   99  108 1   
   109  100  109 1   
   110  100  110 1   
   111  100  111 1   
   112  112  113 1   
   113  112  119 1   
   114  113  114 1   
   115  113  116 1   
   116  113  120 1   
   117  114  115 2   
   118  114  126 1   
   119  116  117 1   
   120  116  118 1   
   121  116  121 1   
   122  117  123 1   
   123  117  124 1   
   124  117  125 1   
   125  118  122 1   
   126  126  127 1   
   127  126  133 1   
   128  127  128 1   
   129  127  130 1   
   130  127  134 1   
   131  128  129 2   
   132  128  140 1   
   133  130  131 1   
   134  130  132 1   
   135  130  135 1   
   136  131  137 1   
   137  131  138 1   
   138  131  139 1   
   139  132  136 1   
   140  140  141 1   
   141  140  149 1   
   142  141  142 1   
   143  141  144 1   
   144  141  150 1   
   145  142  143 2   
   146  142  162 1   
   147  144  145 1   
   148  144  151 1   
   149  144  152 1   
   150  145  146 1   
   151  145  153 1   
   152  145  154 1   
   153  146  147 1   
   154  146  155 1   
   155  146  156 1   
   156  147  148 1   
   157  147  157 1   
   158  147  158 1   
   159  148  159 1   
   160  148  160 1   
   161  148  161 1   
   162  162  163 1   
   163  162  171 1   
   164  163  164 1   
   165  163  166 1   
   166  163  172 1   
   167  164  165 2   
   168  164  177 1   
   169  166  167 1   
   170  166  173 1   
   171  166  174 1   
   172  167  168 1   
   173  167  175 1   
   174  167  176 1   
   175  168  169 1   
   176  168  170 1   
   177  177  178 1   
   178  177  182 1   
   179  178  179 1   
   180  178  180 1   
   181  178  181 1   
   182  184  185 1   
   183  184  186 1   
   184  187  188 1   
   185  187  189 1   
@<TRIPOS>SUBSTRUCTURE
     1 MOL         1 TEMP              0 ****  ****    0 ROOT
