@<TRIPOS>MOLECULE
MOL
  175   173     1     0     0
SMALL
resp


@<TRIPOS>ATOM
      1 C1          1.0130    3.4290    5.6520 c3        1 MOL     -0.366301
      2 C2          0.4590    3.9840    4.3090 c         1 MOL      0.693529
      3 O1          1.2950    4.1600    3.3690 o         1 MOL     -0.538467
      4 H1          1.9920    2.9830    5.4830 hc        1 MOL      0.091711
      5 H2          1.1040    4.2420    6.3710 hc        1 MOL      0.091711
      6 H3          0.3320    2.6730    6.0410 hc        1 MOL      0.091711
      7 N1         -0.8210    4.2160    4.1120 n         1 MOL     -0.641927
      8 C3         -1.3280    3.7450    2.7920 c3        1 MOL      0.256282
      9 C4         -1.2720    4.8580    1.7280 c         1 MOL      0.459680
     10 O2         -1.4500    6.0520    1.9850 o         1 MOL     -0.534398
     11 C5         -2.8520    3.3830    3.0700 c3        1 MOL     -0.325165
     12 C6         -3.5040    2.6890    1.8660 c         1 MOL      0.783172
     13 O3         -4.7430    2.5060    1.9400 o         1 MOL     -0.678159
     14 O4         -2.8090    2.2430    0.9030 o         1 MOL     -0.678159
     15 H4         -1.3930    4.0390    4.9230 hn        1 MOL      0.322595
     16 H5         -0.9310    2.7870    2.4560 h1        1 MOL      0.011858
     17 H6         -3.4220    4.2860    3.2920 hc        1 MOL      0.077228
     18 H7         -2.8760    2.7430    3.9550 hc        1 MOL      0.077228
     19 N2         -1.1570    4.4710    0.3990 n         1 MOL     -0.420470
     20 C7         -1.2630    5.3630   -0.7240 c3        1 MOL      0.074319
     21 C8         -2.4660    5.1560   -1.6660 c         1 MOL      0.598200
     22 O5         -2.7870    6.0020   -2.4640 o         1 MOL     -0.594853
     23 C9          0.1100    5.2510   -1.4960 c3        1 MOL     -0.091427
     24 H8         -1.1510    3.4940    0.1520 hn        1 MOL      0.495415
     25 H9         -1.3490    6.3860   -0.3870 h1        1 MOL      0.047406
     26 H10         0.2820    4.2200   -1.8230 hc        1 MOL      0.021559
     27 H11         0.1320    5.8190   -2.4310 hc        1 MOL      0.021559
     28 H12         0.9720    5.6010   -0.9380 hc        1 MOL      0.021559
     29 N3         -3.1700    4.0100   -1.5450 n         1 MOL     -0.618811
     30 C10        -4.2720    3.6800   -2.5110 c3        1 MOL      0.318721
     31 C11        -5.5400    2.9980   -1.9800 c         1 MOL      0.304334
     32 O6         -6.4990    3.0530   -2.7290 o         1 MOL     -0.559296
     33 C12        -3.5700    2.8240   -3.6480 c3        1 MOL     -0.333845
     34 C13        -2.9630    1.5450   -3.0910 c         1 MOL      0.711665
     35 O7         -2.0130    1.0060   -3.7400 o         1 MOL     -0.678623
     36 O8         -3.3230    1.1260   -1.9740 o         1 MOL     -0.678623
     37 H13        -2.8350    3.2670   -0.9510 hn        1 MOL      0.242827
     38 H14        -4.6690    4.5720   -2.9910 h1        1 MOL      0.055264
     39 H15        -2.6780    3.3710   -3.9490 hc        1 MOL      0.077075
     40 H16        -4.2650    2.7420   -4.4790 hc        1 MOL      0.077075
     41 N4         -5.6730    2.4610   -0.7520 n         1 MOL      0.012600
     42 C14        -7.0070    1.9770   -0.2950 c3        1 MOL     -0.431283
     43 C15        -7.3690    0.5030   -0.6190 c         1 MOL      0.609318
     44 O9         -8.3110   -0.0480   -0.0690 o         1 MOL     -0.614254
     45 H17        -4.9280    2.3470   -0.0710 hn        1 MOL      0.029570
     46 H18        -7.7600    2.6730   -0.6780 h1        1 MOL      0.168812
     47 H19        -6.9790    2.0110    0.7870 h1        1 MOL      0.168812
     48 N5         -6.5060   -0.1870   -1.4120 n         1 MOL     -0.415576
     49 C16        -6.7420   -1.4940   -1.9990 c3        1 MOL     -0.034726
     50 C17        -6.7800   -2.7120   -1.0870 c         1 MOL      0.427751
     51 O10        -6.7310   -3.8640   -1.5750 o         1 MOL     -0.530136
     52 C18        -5.6660   -1.6270   -3.0730 c3        1 MOL     -0.084487
     53 C19        -4.1670   -1.7010   -2.5880 c         1 MOL      0.267321
     54 N6         -3.2580   -1.8350   -3.5190 n         1 MOL     -0.550606
     55 O11        -3.8750   -1.6690   -1.3700 o         1 MOL     -0.084486
     56 H20        -5.6840    0.3530   -1.6720 hn        1 MOL      0.339668
     57 H21        -7.6860   -1.5360   -2.5390 h1        1 MOL      0.106394
     58 H22        -5.6380   -0.7280   -3.6950 hc        1 MOL      0.032708
     59 H23        -5.8240   -2.4490   -3.7740 hc        1 MOL      0.032708
     60 H24        -3.5500   -1.8270   -4.4860 hn        1 MOL      0.330545
     61 H25        -2.3210   -1.7800   -3.1730 hn        1 MOL      0.330545
     62 N7         -6.7890   -2.5080    0.2210 n         1 MOL     -0.141749
     63 C20        -6.9040   -3.5620    1.2440 c3        1 MOL     -0.346888
     64 C21        -5.5860   -4.2470    1.7050 c         1 MOL      0.608435
     65 O12        -5.6120   -5.1550    2.5820 o         1 MOL     -0.581378
     66 H26        -6.8220   -1.5800    0.6280 hn        1 MOL      0.246857
     67 H27        -7.4450   -4.3720    0.7520 h1        1 MOL      0.141108
     68 H28        -7.4970   -3.1320    2.0560 h1        1 MOL      0.141108
     69 N8         -4.4110   -3.7390    1.2330 n         1 MOL     -0.297702
     70 C22        -3.1010   -4.3970    1.4060 c3        1 MOL     -0.060027
     71 C23        -2.0210   -3.4120    1.5000 c         1 MOL      0.642093
     72 O13        -2.1330   -2.3050    0.9050 o         1 MOL     -0.590291
     73 C24        -2.6810   -5.2410    0.1410 c3        1 MOL      0.726667
     74 C25        -3.6370   -6.4410    0.0530 c3        1 MOL     -0.668102
     75 O14        -2.7440   -4.5370   -1.1290 oh        1 MOL     -0.669084
     76 H29        -4.4320   -3.0160    0.5160 hn        1 MOL      0.000493
     77 H30        -3.0300   -5.0350    2.2830 h1        1 MOL      0.049001
     78 H31        -1.6980   -5.6990    0.2880 h1        1 MOL     -0.076316
     79 H32        -2.4300   -3.6380   -1.0470 ho        1 MOL      0.376615
     80 H33        -3.1980   -7.2200   -0.5680 hc        1 MOL      0.156849
     81 H34        -4.0350   -6.7900    1.0010 hc        1 MOL      0.156849
     82 H35        -4.4710   -6.1210   -0.5720 hc        1 MOL      0.156849
     83 N9         -0.9040   -3.8310    2.1220 n         1 MOL     -0.807788
     84 C26         0.3290   -2.9560    2.0460 c3        1 MOL      0.037566
     85 C27         1.0420   -3.2110    0.7070 c         1 MOL      0.414521
     86 O15         0.9670   -4.3510    0.2430 o         1 MOL     -0.537563
     87 C28         1.2840   -3.2390    3.2120 c3        1 MOL      0.484925
     88 C29         0.4550   -3.1520    4.4940 c3        1 MOL      0.008500
     89 C30         2.4220   -2.1990    3.2440 c3        1 MOL     -0.558283
     90 C31         1.3420   -3.1620    5.7900 c3        1 MOL     -0.150293
     91 H36        -0.9160   -4.7080    2.6170 hn        1 MOL      0.372479
     92 H37         0.0720   -1.9010    2.0950 h1        1 MOL      0.180659
     93 H38         1.6910   -4.2410    3.0590 hc        1 MOL     -0.065530
     94 H39        -0.0840   -4.1030    4.5590 hc        1 MOL     -0.015379
     95 H40        -0.0830   -2.2120    4.3930 hc        1 MOL     -0.015379
     96 H41         2.0570   -1.1810    3.3480 hc        1 MOL      0.094343
     97 H42         3.0310   -2.3350    4.1330 hc        1 MOL      0.094343
     98 H43         3.1390   -2.3190    2.4350 hc        1 MOL      0.094343
     99 H44         2.1130   -3.9270    5.6710 hc        1 MOL      0.027566
    100 H45         1.8090   -2.2150    6.0110 hc        1 MOL      0.027566
    101 H46         0.6940   -3.4340    6.6310 hc        1 MOL      0.027566
    102 N10         1.6790   -2.2160    0.0940 n         1 MOL     -0.342507
    103 C32         2.3440   -2.2080   -1.2070 c3        1 MOL      0.121938
    104 C33         3.7910   -1.7420   -0.9860 c         1 MOL      0.468647
    105 O16         4.0570   -0.9340   -0.1150 o         1 MOL     -0.403521
    106 C34         1.5920   -1.3470   -2.2670 c3        1 MOL     -0.213841
    107 C35         0.0390   -1.7440   -2.4550 c         1 MOL      0.719546
    108 O17        -0.3340   -2.2480   -3.5250 o         1 MOL     -0.675383
    109 O18        -0.8870   -1.4910   -1.6420 o         1 MOL     -0.675383
    110 H47         1.5090   -1.2930    0.4650 hn        1 MOL      0.277515
    111 H48         2.3470   -3.2490   -1.5390 h1        1 MOL      0.041529
    112 H49         2.1120   -1.4310   -3.2200 hc        1 MOL      0.047818
    113 H50         1.5850   -0.3290   -1.8600 hc        1 MOL      0.047818
    114 N11         4.6880   -2.1770   -1.8700 n         1 MOL     -0.771276
    115 C36         6.0640   -1.8130   -1.5760 c3        1 MOL      0.715907
    116 C37         6.4390   -0.3290   -1.3060 c         1 MOL      0.039824
    117 O19         7.2830   -0.2680   -0.3630 o         1 MOL     -0.425424
    118 C38         6.9720   -2.4640   -2.5380 c3        1 MOL     -0.311334
    119 C39         8.4500   -2.3780   -2.1490 ca        1 MOL      0.229663
    120 C40         9.3480   -1.4810   -2.7300 ca        1 MOL     -0.322195
    121 C41         8.8470   -3.1440   -1.0670 ca        1 MOL     -0.322195
    122 C42        10.6090   -1.3450   -2.2320 ca        1 MOL      0.056993
    123 C43        10.0950   -2.8710   -0.4820 ca        1 MOL      0.056993
    124 C44        11.0550   -2.1030   -1.1550 ca        1 MOL     -0.271541
    125 H51         4.3450   -2.6130   -2.7200 hn        1 MOL      0.356218
    126 H52         6.2730   -2.3610   -0.6600 h1        1 MOL     -0.008719
    127 H53         6.8330   -1.9680   -3.5010 hc        1 MOL      0.063024
    128 H54         6.6800   -3.5040   -2.6310 hc        1 MOL      0.063024
    129 H55         9.0490   -0.8580   -3.5540 ha        1 MOL      0.148286
    130 H56         8.2340   -3.9720   -0.7390 ha        1 MOL      0.148286
    131 H57        11.2180   -0.5820   -2.6900 ha        1 MOL      0.071034
    132 H58        10.4580   -3.3830    0.4000 ha        1 MOL      0.071034
    133 H59        12.0360   -1.8690   -0.7820 ha        1 MOL      0.133041
    134 N12         5.9260    0.7120   -1.9300 n         1 MOL      0.107918
    135 C45         6.4090    2.1060   -1.6100 c3        1 MOL      0.039015
    136 C46         6.0540    2.4800   -0.1760 c         1 MOL      0.097976
    137 O20         6.8130    3.0840    0.5910 o         1 MOL     -0.457918
    138 C47         5.7300    3.0880   -2.5840 c3        1 MOL      0.126272
    139 C48         5.5460    2.2390   -3.7780 c3        1 MOL      0.035640
    140 C49         5.2180    0.8240   -3.2230 c3        1 MOL     -0.244720
    141 H60         7.4610    2.2940   -1.8300 h1        1 MOL      0.057268
    142 H61         4.7230    3.2880   -2.2060 hc        1 MOL     -0.006930
    143 H62         6.3300    3.9720   -2.7940 hc        1 MOL     -0.006930
    144 H63         4.7500    2.7430   -4.3140 hc        1 MOL      0.006549
    145 H64         6.4560    2.1820   -4.3680 hc        1 MOL      0.006549
    146 H65         4.1400    0.7310   -3.1010 h1        1 MOL      0.083331
    147 H66         5.6070   -0.0310   -3.7730 h1        1 MOL      0.083331
    148 N13         4.8960    2.0920    0.2520 n         1 MOL     -0.029964
    149 C50         4.3960    2.1840    1.6220 c3        1 MOL     -0.058317
    150 C51         5.2290    1.3450    2.6560 c         1 MOL      0.437964
    151 O21         5.7200    1.9410    3.5790 o         1 MOL     -0.547519
    152 C52         2.9190    1.6400    1.5650 c3        1 MOL     -0.056558
    153 C53         1.8900    2.3150    0.6250 c3        1 MOL     -0.134203
    154 C54         0.7810    1.3660    0.2420 c         1 MOL      0.917779
    155 O22        -0.1350    1.8000   -0.4970 o         1 MOL     -0.825650
    156 O23         0.6330    0.2390    0.7470 o         1 MOL     -0.825650
    157 H67         4.3450    1.6120   -0.4390 hn        1 MOL      0.245700
    158 H68         4.3410    3.2300    1.9030 h1        1 MOL      0.098179
    159 H69         2.4010    1.5660    2.5210 hc        1 MOL      0.006813
    160 H70         3.1590    0.6200    1.2670 hc        1 MOL      0.006813
    161 H71         2.3830    2.4930   -0.3260 hc        1 MOL     -0.004137
    162 H72         1.4520    3.2480    0.9530 hc        1 MOL     -0.004137
    163 N14         5.6160    0.1220    2.3270 n         1 MOL     -0.026894
    164 C55         6.5890   -0.7110    3.0940 c3        1 MOL     -0.214634
    165 H73         7.3190   -1.1410    2.4070 h1        1 MOL      0.080498
    166 H74         7.1020   -0.0890    3.8270 h1        1 MOL      0.080498
    167 H75         6.0570   -1.5130    3.6070 h1        1 MOL      0.080498
    168 H76         5.3960   -0.2430    1.4220 hn        1 MOL      0.112931
    169 Ca1        -2.0140    0.1010   -0.0500 Ca        1 MOL      1.563625
    170 O24        -1.2580    0.1440    2.7300 oh        1 MOL     -0.795909
    171 H77        -0.3070    0.1110    2.5890 ho        1 MOL      0.386027
    172 H78        -1.3530    0.1580    3.6880 ho        1 MOL      0.386027
    173 O25        -4.5470   -0.1760    1.2780 oh        1 MOL     -0.795909
    174 H79        -4.5820    0.7340    1.5720 ho        1 MOL      0.386027
    175 H80        -5.3870   -0.5420    1.5320 ho        1 MOL      0.386027
@<TRIPOS>BOND
     1    1    2 1   
     2    1    4 1   
     3    1    5 1   
     4    1    6 1   
     5    2    3 2   
     6    2    7 1   
     7    7    8 1   
     8    7   15 1   
     9    8    9 1   
    10    8   11 1   
    11    8   16 1   
    12    9   10 2   
    13    9   19 1   
    14   11   12 1   
    15   11   17 1   
    16   11   18 1   
    17   12   13 1   
    18   12   14 1   
    19   19   20 1   
    20   19   24 1   
    21   20   21 1   
    22   20   23 1   
    23   20   25 1   
    24   21   22 2   
    25   21   29 1   
    26   23   26 1   
    27   23   27 1   
    28   23   28 1   
    29   29   30 1   
    30   29   37 1   
    31   30   31 1   
    32   30   33 1   
    33   30   38 1   
    34   31   32 2   
    35   31   41 1   
    36   33   34 1   
    37   33   39 1   
    38   33   40 1   
    39   34   35 1   
    40   34   36 1   
    41   41   42 1   
    42   41   45 1   
    43   42   43 1   
    44   42   46 1   
    45   42   47 1   
    46   43   44 2   
    47   43   48 1   
    48   48   49 1   
    49   48   56 1   
    50   49   50 1   
    51   49   52 1   
    52   49   57 1   
    53   50   51 2   
    54   50   62 1   
    55   52   53 1   
    56   52   58 1   
    57   52   59 1   
    58   53   54 1   
    59   53   55 2   
    60   54   60 1   
    61   54   61 1   
    62   62   63 1   
    63   62   66 1   
    64   63   64 1   
    65   63   67 1   
    66   63   68 1   
    67   64   65 2   
    68   64   69 1   
    69   69   70 1   
    70   69   76 1   
    71   70   71 1   
    72   70   73 1   
    73   70   77 1   
    74   71   72 2   
    75   71   83 1   
    76   73   74 1   
    77   73   75 1   
    78   73   78 1   
    79   74   80 1   
    80   74   81 1   
    81   74   82 1   
    82   75   79 1   
    83   83   84 1   
    84   83   91 1   
    85   84   85 1   
    86   84   87 1   
    87   84   92 1   
    88   85   86 2   
    89   85  102 1   
    90   87   88 1   
    91   87   89 1   
    92   87   93 1   
    93   88   90 1   
    94   88   94 1   
    95   88   95 1   
    96   89   96 1   
    97   89   97 1   
    98   89   98 1   
    99   90   99 1   
   100   90  100 1   
   101   90  101 1   
   102  102  103 1   
   103  102  110 1   
   104  103  104 1   
   105  103  106 1   
   106  103  111 1   
   107  104  105 2   
   108  104  114 1   
   109  106  107 1   
   110  106  112 1   
   111  106  113 1   
   112  107  108 1   
   113  107  109 1   
   114  114  115 1   
   115  114  125 1   
   116  115  116 1   
   117  115  118 1   
   118  115  126 1   
   119  116  117 2   
   120  116  134 1   
   121  118  119 1   
   122  118  127 1   
   123  118  128 1   
   124  119  120 ar  
   125  119  121 ar  
   126  120  122 ar  
   127  120  129 1   
   128  121  123 ar  
   129  121  130 1   
   130  122  124 ar  
   131  122  131 1   
   132  123  124 ar  
   133  123  132 1   
   134  124  133 1   
   135  134  135 1   
   136  134  140 1   
   137  135  136 1   
   138  135  138 1   
   139  135  141 1   
   140  136  137 2   
   141  136  148 1   
   142  138  139 1   
   143  138  142 1   
   144  138  143 1   
   145  139  140 1   
   146  139  144 1   
   147  139  145 1   
   148  140  146 1   
   149  140  147 1   
   150  148  149 1   
   151  148  157 1   
   152  149  150 1   
   153  149  152 1   
   154  149  158 1   
   155  150  151 2   
   156  150  163 1   
   157  152  153 1   
   158  152  159 1   
   159  152  160 1   
   160  153  154 1   
   161  153  161 1   
   162  153  162 1   
   163  154  155 1   
   164  154  156 1   
   165  163  164 1   
   166  163  168 1   
   167  164  165 1   
   168  164  166 1   
   169  164  167 1   
   170  170  171 1   
   171  170  172 1   
   172  173  174 1   
   173  173  175 1   
@<TRIPOS>SUBSTRUCTURE
     1 MOL         1 TEMP              0 ****  ****    0 ROOT
