@<TRIPOS>MOLECULE
MOL
  175   173     1     0     0
SMALL
resp


@<TRIPOS>ATOM
      1 C1          0.6710    3.8320    5.4860 c3        1 MOL     -0.334557
      2 C2          0.2070    3.9400    4.1210 c         1 MOL      0.719944
      3 O1          0.9030    4.3650    3.1940 o         1 MOL     -0.533678
      4 H1          1.7500    3.9880    5.5160 hc        1 MOL      0.078081
      5 H2          0.1790    4.5870    6.0990 hc        1 MOL      0.078081
      6 H3          0.4370    2.8410    5.8740 hc        1 MOL      0.078081
      7 N1         -1.0940    3.7000    3.9610 n         1 MOL     -0.579190
      8 C3         -1.7420    3.3940    2.6910 c3        1 MOL      0.018416
      9 C4         -1.8600    4.6650    1.7290 c         1 MOL      0.631351
     10 O2         -2.0130    5.7730    2.2720 o         1 MOL     -0.567198
     11 C5         -3.1970    2.9740    2.9600 c3        1 MOL     -0.343226
     12 C6         -3.9790    2.2490    1.8000 c         1 MOL      0.749686
     13 O3         -5.1120    1.7810    2.0650 o         1 MOL     -0.670834
     14 O4         -3.3770    1.9520    0.7150 o         1 MOL     -0.670834
     15 H4         -1.7100    3.6260    4.7540 hn        1 MOL      0.318020
     16 H5         -1.1260    2.6800    2.1440 h1        1 MOL      0.110707
     17 H6         -3.7860    3.8280    3.2920 hc        1 MOL      0.086297
     18 H7         -3.2500    2.2470    3.7700 hc        1 MOL      0.086297
     19 N2         -1.8820    4.5310    0.3810 n         1 MOL     -0.614480
     20 C7         -2.1470    5.5660   -0.5540 c3        1 MOL      0.430178
     21 C8         -3.2060    5.2080   -1.5920 c         1 MOL      0.423908
     22 O5         -3.4310    6.0360   -2.4730 o         1 MOL     -0.576022
     23 C9         -0.7560    5.9370   -1.1690 c3        1 MOL     -0.277952
     24 H8         -1.6290    3.6040    0.0720 hn        1 MOL      0.338450
     25 H9         -2.4520    6.4700   -0.0250 h1        1 MOL     -0.022709
     26 H10        -0.0870    6.2220   -0.3540 hc        1 MOL      0.062773
     27 H11        -0.3660    5.1700   -1.8390 hc        1 MOL      0.062773
     28 H12        -0.8790    6.7860   -1.8410 hc        1 MOL      0.062773
     29 N3         -3.8030    4.0270   -1.5380 n         1 MOL     -0.449252
     30 C10        -4.6970    3.6590   -2.6630 c3        1 MOL      0.332997
     31 C11        -6.0080    2.9220   -2.2300 c         1 MOL      0.348349
     32 O6         -7.0320    3.0960   -2.8980 o         1 MOL     -0.579111
     33 C12        -3.9530    2.7900   -3.6870 c3        1 MOL     -0.315672
     34 C13        -3.2600    1.5970   -2.9580 c         1 MOL      0.768036
     35 O7         -2.0820    1.2730   -3.1850 o         1 MOL     -0.702964
     36 O8         -3.8980    0.8790   -2.1480 o         1 MOL     -0.702964
     37 H13        -3.5410    3.4820   -0.7330 hn        1 MOL      0.193844
     38 H14        -5.0560    4.5250   -3.2140 h1        1 MOL      0.035953
     39 H15        -3.1670    3.4380   -4.0850 hc        1 MOL      0.074783
     40 H16        -4.6050    2.4490   -4.4900 hc        1 MOL      0.074783
     41 N4         -6.0690    2.2700   -1.0980 n         1 MOL     -0.190303
     42 C14        -7.2750    1.5770   -0.5690 c3        1 MOL     -0.160448
     43 C15        -7.3900    0.0850   -0.9090 c         1 MOL      0.493869
     44 O9         -8.3440   -0.5010   -0.3930 o         1 MOL     -0.597955
     45 H17        -5.1690    2.0660   -0.7040 hn        1 MOL      0.096464
     46 H18        -8.1450    2.1650   -0.8780 h1        1 MOL      0.121585
     47 H19        -7.4130    1.6300    0.5090 h1        1 MOL      0.121585
     48 N5         -6.4330   -0.4860   -1.6830 n         1 MOL     -0.260844
     49 C16        -6.3690   -1.8450   -2.0580 c3        1 MOL     -0.117125
     50 C17        -6.3590   -2.9730   -0.9580 c         1 MOL      0.492412
     51 O10        -6.1430   -4.1570   -1.2430 o         1 MOL     -0.520921
     52 C18        -5.3910   -2.1060   -3.1310 c3        1 MOL     -0.017226
     53 C19        -3.9820   -2.1500   -2.5940 c         1 MOL      0.608958
     54 N6         -2.9470   -2.2980   -3.3750 n         1 MOL     -0.610217
     55 O11        -3.7360   -1.9710   -1.4380 o         1 MOL     -0.621059
     56 H20        -5.6390    0.0720   -1.9740 hn        1 MOL      0.252034
     57 H21        -7.3250   -2.1640   -2.4810 h1        1 MOL      0.091363
     58 H22        -5.4500   -1.3460   -3.8980 hc        1 MOL      0.026386
     59 H23        -5.5190   -3.0010   -3.7390 hc        1 MOL      0.026386
     60 H24        -3.1840   -2.2710   -4.3580 hn        1 MOL      0.299109
     61 H25        -2.0040   -2.1930   -3.0200 hn        1 MOL      0.299109
     62 N7         -6.4770   -2.5820    0.3420 n         1 MOL     -0.267395
     63 C20        -6.5880   -3.4570    1.5050 c3        1 MOL     -0.227776
     64 C21        -5.2930   -4.2310    1.8180 c         1 MOL      0.513988
     65 O12        -5.2440   -5.2560    2.4620 o         1 MOL     -0.587943
     66 H26        -6.4560   -1.5850    0.5020 hn        1 MOL      0.338741
     67 H27        -7.3710   -4.1950    1.3460 h1        1 MOL      0.114437
     68 H28        -6.8370   -2.8230    2.3590 h1        1 MOL      0.114437
     69 N8         -4.1520   -3.7950    1.3470 n         1 MOL      0.002317
     70 C22        -2.8290   -4.5020    1.4560 c3        1 MOL     -0.263424
     71 C23        -1.6290   -3.5040    1.3560 c         1 MOL      0.591875
     72 O13        -1.7880   -2.4140    0.7820 o         1 MOL     -0.513782
     73 C24        -2.5530   -5.4620    0.3150 c3        1 MOL      0.569530
     74 C25        -3.5170   -6.6610    0.4070 c3        1 MOL     -0.560880
     75 O14        -2.8400   -4.8660   -0.9330 oh        1 MOL     -0.593096
     76 H29        -4.1800   -2.8760    0.9480 hn        1 MOL     -0.054625
     77 H30        -2.7740   -5.0710    2.3830 h1        1 MOL      0.098756
     78 H31        -1.5270   -5.8200    0.3640 h1        1 MOL     -0.045734
     79 H32        -2.8820   -3.9060   -0.8770 ho        1 MOL      0.331438
     80 H33        -4.5330   -6.3960    0.1160 hc        1 MOL      0.136636
     81 H34        -3.1920   -7.4650   -0.2560 hc        1 MOL      0.136636
     82 H35        -3.5710   -7.0120    1.4400 hc        1 MOL      0.136636
     83 N9         -0.5180   -3.8020    2.0540 n         1 MOL     -0.596485
     84 C26         0.7330   -3.0170    1.9260 c3        1 MOL      0.225519
     85 C27         1.3520   -3.2000    0.5240 c         1 MOL      0.582845
     86 O15         1.5970   -4.2650    0.1550 o         1 MOL     -0.583738
     87 C28         1.7530   -3.2520    3.0900 c3        1 MOL     -0.230461
     88 C29         1.1000   -2.4710    4.2740 c3        1 MOL      0.296762
     89 C30         3.0560   -2.5210    2.8500 c3        1 MOL      0.040595
     90 C31         1.7470   -2.7180    5.5980 c3        1 MOL     -0.261715
     91 H36        -0.4170   -4.7430    2.4030 hn        1 MOL      0.301746
     92 H37         0.4530   -1.9710    1.9930 h1        1 MOL     -0.071783
     93 H38         1.8540   -4.3100    3.3560 hc        1 MOL      0.076848
     94 H39         0.0360   -2.5810    4.4380 hc        1 MOL     -0.041927
     95 H40         1.1140   -1.3880    4.1150 hc        1 MOL     -0.041927
     96 H41         3.0000   -1.4310    2.7490 hc        1 MOL     -0.005448
     97 H42         3.7510   -2.6190    3.6910 hc        1 MOL     -0.005448
     98 H43         3.5740   -2.9250    1.9800 hc        1 MOL     -0.005448
     99 H44         2.6550   -2.1060    5.6240 hc        1 MOL      0.043670
    100 H45         1.0800   -2.3010    6.3420 hc        1 MOL      0.043670
    101 H46         1.8650   -3.7600    5.8930 hc        1 MOL      0.043670
    102 N10         1.6450   -2.0680   -0.0750 n         1 MOL     -0.354395
    103 C32         2.4900   -1.8790   -1.2640 c3        1 MOL      0.200090
    104 C33         3.9090   -1.5170   -0.8080 c         1 MOL      0.375137
    105 O16         4.1110   -0.8940    0.2110 o         1 MOL     -0.185842
    106 C34         1.8810   -0.9010   -2.2500 c3        1 MOL     -0.386687
    107 C35         0.5500   -1.2790   -2.7070 c         1 MOL      0.732322
    108 O17        -0.4920   -1.2940   -1.9820 o         1 MOL     -0.666470
    109 O18         0.4220   -1.5830   -3.9520 o         1 MOL     -0.666470
    110 H47         1.3500   -1.2390    0.4180 hn        1 MOL      0.196174
    111 H48         2.4660   -2.8980   -1.6460 h1        1 MOL      0.037916
    112 H49         2.5480   -0.8920   -3.1120 hc        1 MOL      0.111126
    113 H50         1.8750    0.1260   -1.8710 hc        1 MOL      0.111126
    114 N11         4.9350   -1.8310   -1.5980 n         1 MOL     -0.695567
    115 C36         6.3460   -1.7000   -1.2890 c3        1 MOL      0.419758
    116 C37         6.8170   -0.2670   -1.0120 c         1 MOL      0.409822
    117 O19         7.4900   -0.1050    0.0180 o         1 MOL     -0.521508
    118 C38         7.1740   -2.3830   -2.3750 c3        1 MOL     -0.124311
    119 C39         8.6550   -2.1440   -2.3020 ca        1 MOL      0.048421
    120 C40         9.4100   -2.4600   -1.1490 ca        1 MOL     -0.168132
    121 C41         9.2660   -1.3120   -3.2570 ca        1 MOL     -0.168132
    122 C42        10.7510   -1.9310   -1.0110 ca        1 MOL     -0.115682
    123 C43        10.5340   -0.8040   -3.1610 ca        1 MOL     -0.115682
    124 C44        11.2970   -1.0750   -2.0100 ca        1 MOL     -0.092787
    125 H51         4.7260   -2.4120   -2.4070 hn        1 MOL      0.325943
    126 H52         6.5740   -2.2450   -0.3820 h1        1 MOL      0.025632
    127 H53         6.8330   -1.9780   -3.3210 hc        1 MOL      0.032836
    128 H54         7.0410   -3.4630   -2.2890 hc        1 MOL      0.032836
    129 H55         8.9270   -2.8860   -0.2760 ha        1 MOL      0.123232
    130 H56         8.7780   -1.0460   -4.1890 ha        1 MOL      0.123232
    131 H57        11.3970   -2.1440   -0.1710 ha        1 MOL      0.112927
    132 H58        10.9300   -0.1880   -3.9500 ha        1 MOL      0.112927
    133 H59        12.2870   -0.6360   -1.9890 ha        1 MOL      0.097044
    134 N12         6.3840    0.8450   -1.6360 n         1 MOL     -0.108457
    135 C45         6.6380    2.2220   -1.1930 c3        1 MOL      0.086586
    136 C46         6.0600    2.5010    0.1860 c         1 MOL      0.243711
    137 O20         6.6420    3.2310    1.0120 o         1 MOL     -0.493692
    138 C47         6.1460    3.1030   -2.3440 c3        1 MOL     -0.052222
    139 C48         6.0490    2.2030   -3.5940 c3        1 MOL     -0.002404
    140 C49         5.6990    0.8820   -2.8940 c3        1 MOL     -0.074811
    141 H60         7.7140    2.3010   -1.1010 h1        1 MOL      0.051815
    142 H61         5.1650    3.4860   -2.0820 hc        1 MOL      0.039775
    143 H62         6.8200    3.9450   -2.5220 hc        1 MOL      0.039775
    144 H63         5.3010    2.5010   -4.3390 hc        1 MOL      0.018593
    145 H64         6.9940    1.9660   -4.0810 hc        1 MOL      0.018593
    146 H65         4.6100    0.8350   -2.8200 h1        1 MOL      0.040974
    147 H66         6.1080    0.0550   -3.4770 h1        1 MOL      0.040974
    148 N13         4.9190    1.8510    0.5850 n         1 MOL      0.015037
    149 C50         4.1750    2.1600    1.8100 c3        1 MOL     -0.151719
    150 C51         4.8870    1.3350    2.9710 c         1 MOL      0.475706
    151 O21         5.0730    1.7920    4.0510 o         1 MOL     -0.541121
    152 C52         2.7480    1.5960    1.7290 c3        1 MOL     -0.178250
    153 C53         1.8970    2.2730    0.6840 c3        1 MOL      0.030001
    154 C54         0.5130    1.5900    0.3960 c         1 MOL      0.517670
    155 O22         0.2400    0.3940    0.7590 o         1 MOL     -0.666818
    156 O23        -0.3630    2.1300   -0.2830 o         1 MOL     -0.666818
    157 H67         4.5400    1.1500   -0.0410 hn        1 MOL      0.059781
    158 H68         4.2320    3.2210    2.0550 h1        1 MOL      0.133252
    159 H69         2.1760    1.6760    2.6480 hc        1 MOL      0.068037
    160 H70         2.7660    0.5560    1.4150 hc        1 MOL      0.068037
    161 H71         2.4480    2.2560   -0.2600 hc        1 MOL      0.033988
    162 H72         1.7800    3.3270    0.9420 hc        1 MOL      0.033988
    163 N14         5.4160    0.1220    2.6700 n         1 MOL      0.004644
    164 C55         6.2830   -0.6740    3.5410 c3        1 MOL     -0.227572
    165 H73         7.1620   -0.0890    3.8110 h1        1 MOL      0.079798
    166 H74         5.7380   -0.9480    4.4440 h1        1 MOL      0.079798
    167 H75         6.5950   -1.5770    3.0160 h1        1 MOL      0.079798
    168 H76         5.0740   -0.3620    1.8550 hn        1 MOL     -0.031299
    169 Ca1        -2.1520    0.0090   -0.4860 Ca        1 MOL      1.699058
    170 O24        -4.2130   -0.8210    1.3570 oh        1 MOL     -0.711946
    171 H77        -4.6380   -0.0390    1.7010 ho        1 MOL      0.363513
    172 H78        -3.5450   -1.0450    2.0080 ho        1 MOL      0.363513
    173 O25        -1.8430   -0.0620    2.5260 oh        1 MOL     -0.711946
    174 H79        -1.8710    0.2300    3.4310 ho        1 MOL      0.363513
    175 H80        -0.9250    0.0050    2.2780 ho        1 MOL      0.363513
@<TRIPOS>BOND
     1    1    2 1   
     2    1    4 1   
     3    1    5 1   
     4    1    6 1   
     5    2    3 2   
     6    2    7 1   
     7    7    8 1   
     8    7   15 1   
     9    8    9 1   
    10    8   11 1   
    11    8   16 1   
    12    9   10 2   
    13    9   19 1   
    14   11   12 1   
    15   11   17 1   
    16   11   18 1   
    17   12   13 1   
    18   12   14 1   
    19   19   20 1   
    20   19   24 1   
    21   20   21 1   
    22   20   23 1   
    23   20   25 1   
    24   21   22 2   
    25   21   29 1   
    26   23   26 1   
    27   23   27 1   
    28   23   28 1   
    29   29   30 1   
    30   29   37 1   
    31   30   31 1   
    32   30   33 1   
    33   30   38 1   
    34   31   32 2   
    35   31   41 1   
    36   33   34 1   
    37   33   39 1   
    38   33   40 1   
    39   34   35 1   
    40   34   36 1   
    41   41   42 1   
    42   41   45 1   
    43   42   43 1   
    44   42   46 1   
    45   42   47 1   
    46   43   44 2   
    47   43   48 1   
    48   48   49 1   
    49   48   56 1   
    50   49   50 1   
    51   49   52 1   
    52   49   57 1   
    53   50   51 2   
    54   50   62 1   
    55   52   53 1   
    56   52   58 1   
    57   52   59 1   
    58   53   54 1   
    59   53   55 2   
    60   54   60 1   
    61   54   61 1   
    62   62   63 1   
    63   62   66 1   
    64   63   64 1   
    65   63   67 1   
    66   63   68 1   
    67   64   65 2   
    68   64   69 1   
    69   69   70 1   
    70   69   76 1   
    71   70   71 1   
    72   70   73 1   
    73   70   77 1   
    74   71   72 2   
    75   71   83 1   
    76   73   74 1   
    77   73   75 1   
    78   73   78 1   
    79   74   80 1   
    80   74   81 1   
    81   74   82 1   
    82   75   79 1   
    83   83   84 1   
    84   83   91 1   
    85   84   85 1   
    86   84   87 1   
    87   84   92 1   
    88   85   86 2   
    89   85  102 1   
    90   87   88 1   
    91   87   89 1   
    92   87   93 1   
    93   88   90 1   
    94   88   94 1   
    95   88   95 1   
    96   89   96 1   
    97   89   97 1   
    98   89   98 1   
    99   90   99 1   
   100   90  100 1   
   101   90  101 1   
   102  102  103 1   
   103  102  110 1   
   104  103  104 1   
   105  103  106 1   
   106  103  111 1   
   107  104  105 2   
   108  104  114 1   
   109  106  107 1   
   110  106  112 1   
   111  106  113 1   
   112  107  108 1   
   113  107  109 1   
   114  114  115 1   
   115  114  125 1   
   116  115  116 1   
   117  115  118 1   
   118  115  126 1   
   119  116  117 2   
   120  116  134 1   
   121  118  119 1   
   122  118  127 1   
   123  118  128 1   
   124  119  120 ar  
   125  119  121 ar  
   126  120  122 ar  
   127  120  129 1   
   128  121  123 ar  
   129  121  130 1   
   130  122  124 ar  
   131  122  131 1   
   132  123  124 ar  
   133  123  132 1   
   134  124  133 1   
   135  134  135 1   
   136  134  140 1   
   137  135  136 1   
   138  135  138 1   
   139  135  141 1   
   140  136  137 2   
   141  136  148 1   
   142  138  139 1   
   143  138  142 1   
   144  138  143 1   
   145  139  140 1   
   146  139  144 1   
   147  139  145 1   
   148  140  146 1   
   149  140  147 1   
   150  148  149 1   
   151  148  157 1   
   152  149  150 1   
   153  149  152 1   
   154  149  158 1   
   155  150  151 2   
   156  150  163 1   
   157  152  153 1   
   158  152  159 1   
   159  152  160 1   
   160  153  154 1   
   161  153  161 1   
   162  153  162 1   
   163  154  155 1   
   164  154  156 1   
   165  163  164 1   
   166  163  168 1   
   167  164  165 1   
   168  164  166 1   
   169  164  167 1   
   170  170  171 1   
   171  170  172 1   
   172  173  174 1   
   173  173  175 1   
@<TRIPOS>SUBSTRUCTURE
     1 MOL         1 TEMP              0 ****  ****    0 ROOT
