@<TRIPOS>MOLECULE
MOL
  189   185     1     0     0
SMALL
resp


@<TRIPOS>ATOM
      1 C1         -0.1070    2.2110    6.1620 c3        1 MOL     -0.200512
      2 C2         -0.4500    1.9610    4.6980 c         1 MOL      0.747524
      3 O1          0.3610    2.0790    3.8180 o         1 MOL     -0.639958
      4 H1         -0.6330    1.4890    6.7870 hc        1 MOL      0.049109
      5 H2          0.9670    2.1010    6.3080 hc        1 MOL      0.049109
      6 H3         -0.4110    3.2210    6.4400 hc        1 MOL      0.049109
      7 N1         -1.7200    1.7280    4.3100 n         1 MOL     -0.644158
      8 C3         -2.1140    1.5030    2.9250 c3        1 MOL      0.306372
      9 C4         -2.3620    2.7960    2.2280 c         1 MOL      0.248204
     10 O2         -3.3630    3.4610    2.5830 o         1 MOL     -0.527879
     11 C5         -3.3480    0.6260    2.8810 c3        1 MOL     -0.323095
     12 C6         -3.8650    0.2450    1.4920 c         1 MOL      0.949840
     13 O3         -4.8620   -0.5360    1.4310 o         1 MOL     -0.733406
     14 O4         -3.3070    0.8470    0.4730 o         1 MOL     -0.733406
     15 H4         -2.3550    1.4910    5.0590 hn        1 MOL      0.322165
     16 H5         -1.3670    0.9130    2.3770 h1        1 MOL     -0.041321
     17 H6         -4.1520    1.1780    3.3530 hc        1 MOL      0.066145
     18 H7         -3.0910   -0.3070    3.3870 hc        1 MOL      0.066145
     19 N2         -1.5640    3.1610    1.2410 n         1 MOL      0.060012
     20 C7         -1.6200    4.5560    0.7870 c3        1 MOL     -0.074876
     21 C8         -2.6500    4.8530   -0.2920 c         1 MOL      0.451549
     22 O5         -2.9300    6.0690   -0.5880 o         1 MOL     -0.587483
     23 C9         -0.1860    5.0730    0.4040 c3        1 MOL     -0.050771
     24 C10         0.8360    4.6580    1.4870 c3        1 MOL      0.175854
     25 C11         0.5250    5.1200    2.9320 c3        1 MOL     -0.394705
     26 C12         0.4110    6.6760    2.9030 c3        1 MOL      0.322723
     27 N3         -0.1880    7.0870    4.1760 n4        1 MOL     -0.521644
     28 H8         -0.9420    2.4930    0.8140 hn        1 MOL      0.195976
     29 H9         -1.8940    5.1970    1.6300 h1        1 MOL      0.027624
     30 H10        -0.1100    6.1560    0.3240 hc        1 MOL      0.013876
     31 H11         0.0780    4.5960   -0.5410 hc        1 MOL      0.013876
     32 H12         1.7970    5.0630    1.1620 hc        1 MOL     -0.003934
     33 H13         0.8760    3.5690    1.4660 hc        1 MOL     -0.003934
     34 H14         1.3470    4.8520    3.5920 hc        1 MOL      0.113889
     35 H15        -0.3540    4.5950    3.2680 hc        1 MOL      0.113889
     36 H16        -0.1430    7.1830    2.1160 hx        1 MOL      0.032197
     37 H17         1.3820    7.0900    2.6270 hx        1 MOL      0.032197
     38 H18        -1.1590    7.3270    4.0120 hn        1 MOL      0.356503
     39 H19        -0.3560    6.2810    4.7600 hn        1 MOL      0.356503
     40 H20         0.2660    7.8270    4.7000 hn        1 MOL      0.356503
     41 N4         -3.2680    3.8400   -0.8920 n         1 MOL     -0.135583
     42 C13        -4.4010    3.9410   -1.8340 c3        1 MOL      0.032097
     43 C14        -5.6980    3.2650   -1.4660 c         1 MOL      0.345904
     44 O6         -6.7470    3.5230   -2.0500 o         1 MOL     -0.511752
     45 C15        -3.8780    3.6800   -3.2380 c3        1 MOL     -0.186096
     46 C16        -3.2170    2.3340   -3.5170 c         1 MOL      0.821571
     47 O7         -2.5420    2.2910   -4.5790 o         1 MOL     -0.721436
     48 O8         -3.3910    1.3830   -2.7260 o         1 MOL     -0.721436
     49 H21        -3.0360    2.9360   -0.5160 hn        1 MOL     -0.018774
     50 H22        -4.7190    4.9860   -1.8860 h1        1 MOL      0.095293
     51 H23        -3.1980    4.5030   -3.4750 hc        1 MOL      0.043997
     52 H24        -4.7100    3.7910   -3.9390 hc        1 MOL      0.043997
     53 N5         -5.7290    2.3830   -0.4870 n         1 MOL     -0.159350
     54 C17        -6.8660    1.7190    0.0760 c3        1 MOL     -0.035994
     55 C18        -7.4390    0.5160   -0.6420 c         1 MOL      0.384837
     56 O9         -8.6620    0.4050   -0.7580 o         1 MOL     -0.578142
     57 H25        -4.8380    2.1400   -0.0650 hn        1 MOL      0.175541
     58 H26        -7.6520    2.4750    0.1000 h1        1 MOL      0.067171
     59 H27        -6.6690    1.6610    1.1380 h1        1 MOL      0.067171
     60 N6         -6.6350   -0.2280   -1.2940 n         1 MOL     -0.037286
     61 C19        -6.9870   -1.5230   -1.9500 c3        1 MOL     -0.032769
     62 C20        -6.9510   -2.6970   -1.0330 c         1 MOL      0.553313
     63 O10        -7.0800   -3.8470   -1.4410 o         1 MOL     -0.554556
     64 C21        -6.0770   -1.7440   -3.1820 c3        1 MOL     -0.351547
     65 C22        -4.5130   -1.6980   -2.9310 c         1 MOL      0.762793
     66 O11        -4.0700   -1.8650   -1.7640 o         1 MOL     -0.674788
     67 O12        -3.6400   -1.3960   -3.7640 o         1 MOL     -0.674788
     68 H28        -5.6410   -0.0750   -1.1750 hn        1 MOL      0.096309
     69 H29        -8.0550   -1.5200   -2.1590 h1        1 MOL      0.117727
     70 H30        -6.3730   -1.0260   -3.9540 hc        1 MOL      0.100469
     71 H31        -6.3540   -2.6920   -3.6300 hc        1 MOL      0.100469
     72 N7         -6.6840   -2.4620    0.2520 n         1 MOL     -0.465343
     73 C23        -6.5560   -3.5510    1.2790 c3        1 MOL      0.024921
     74 C24        -5.2690   -4.4070    1.2030 c         1 MOL      0.468432
     75 O13        -5.2780   -5.5360    1.6660 o         1 MOL     -0.562726
     76 H32        -6.1000   -1.6750    0.4870 hn        1 MOL      0.293620
     77 H33        -7.4300   -4.2030    1.2680 h1        1 MOL      0.068963
     78 H34        -6.6170   -3.1280    2.2890 h1        1 MOL      0.068963
     79 N8         -4.1630   -3.9060    0.5960 n         1 MOL     -0.210236
     80 C25        -2.7900   -4.4460    0.7970 c3        1 MOL     -0.086780
     81 C26        -1.7100   -3.3320    0.8530 c         1 MOL      0.686055
     82 O14        -1.9730   -2.2170    0.3770 o         1 MOL     -0.711667
     83 C27        -2.4060   -5.4600   -0.2640 c3        1 MOL      0.326203
     84 C28        -3.1020   -6.8240   -0.1750 c3        1 MOL     -0.489520
     85 O15        -2.5500   -4.7940   -1.5130 oh        1 MOL     -0.629614
     86 H35        -4.2580   -3.0230    0.1210 hn        1 MOL      0.189469
     87 H36        -2.6760   -5.0250    1.7130 h1        1 MOL      0.063627
     88 H37        -1.3570   -5.6470   -0.0550 h1        1 MOL      0.029265
     89 H38        -3.4050   -4.9090   -1.9270 ho        1 MOL      0.444417
     90 H39        -2.9880   -7.2230    0.8290 hc        1 MOL      0.142842
     91 H40        -4.1450   -6.6850   -0.4480 hc        1 MOL      0.142842
     92 H41        -2.5790   -7.5390   -0.8030 hc        1 MOL      0.142842
     93 N9         -0.5380   -3.6460    1.5150 n         1 MOL     -0.540814
     94 C29         0.6650   -2.8010    1.7240 c3        1 MOL      0.069496
     95 C30         1.7660   -3.4830    0.9700 c         1 MOL      0.419924
     96 O16         2.0000   -4.6690    1.2070 o         1 MOL     -0.538880
     97 C31         0.9450   -2.5580    3.2010 c3        1 MOL      0.341053
     98 C32        -0.2730   -2.1730    4.0800 c3        1 MOL      0.242216
     99 C33         2.1150   -1.6450    3.3670 c3        1 MOL     -0.427801
    100 C34        -0.0590   -2.4350    5.5800 c3        1 MOL     -0.282119
    101 H42        -0.4560   -4.5330    1.9920 hn        1 MOL      0.282862
    102 H43         0.4500   -1.7900    1.3890 h1        1 MOL      0.088172
    103 H44         1.2370   -3.5080    3.6570 hc        1 MOL     -0.059199
    104 H45        -1.0300   -2.8630    3.7080 hc        1 MOL     -0.073233
    105 H46        -0.5420   -1.1210    3.9650 hc        1 MOL     -0.073233
    106 H47         1.9690   -0.6410    2.9700 hc        1 MOL      0.070624
    107 H48         2.3910   -1.4170    4.4020 hc        1 MOL      0.070624
    108 H49         2.9610   -2.1230    2.8730 hc        1 MOL      0.070624
    109 H50         0.0240   -3.4880    5.8300 hc        1 MOL      0.060209
    110 H51         0.7960   -1.8700    5.9630 hc        1 MOL      0.060209
    111 H52        -0.9270   -2.0450    6.1090 hc        1 MOL      0.060209
    112 N10         2.4470   -2.7180    0.0970 n         1 MOL     -0.110398
    113 C35         3.6500   -3.0690   -0.6350 c3        1 MOL     -0.007003
    114 C36         4.9170   -2.7450    0.1480 c         1 MOL      0.456199
    115 O17         4.9150   -1.9650    1.0710 o         1 MOL     -0.381017
    116 C37         3.7680   -2.3960   -1.9840 c3        1 MOL      0.086445
    117 C38         2.5760   -2.7960   -2.8970 c3        1 MOL     -0.410401
    118 O18         3.9320   -1.0450   -1.8310 oh        1 MOL     -0.457544
    119 H53         2.0710   -1.7900   -0.0560 hn        1 MOL      0.136759
    120 H54         3.7410   -4.1400   -0.8060 h1        1 MOL      0.072046
    121 H55         4.6730   -2.7290   -2.4890 h1        1 MOL      0.022081
    122 H56         4.1350   -0.7420   -2.7220 ho        1 MOL      0.424577
    123 H57         1.6800   -2.4960   -2.3380 hc        1 MOL      0.123997
    124 H58         2.7090   -2.3470   -3.8770 hc        1 MOL      0.123997
    125 H59         2.5630   -3.8740   -3.0230 hc        1 MOL      0.123997
    126 N11         6.0680   -3.2050   -0.3060 n         1 MOL     -0.437425
    127 C39         7.4370   -2.7690    0.1870 c3        1 MOL     -0.040248
    128 C40         7.5540   -1.2610   -0.1520 c         1 MOL      0.325479
    129 O19         8.0360   -0.4980    0.6660 o         1 MOL     -0.453002
    130 C41         8.6160   -3.5810   -0.3670 c3        1 MOL      0.451859
    131 C42         9.8840   -3.4080    0.4740 c3        1 MOL     -0.335386
    132 O20         8.2300   -4.9420   -0.2870 oh        1 MOL     -0.594586
    133 H60         5.9650   -3.7950   -1.1210 hn        1 MOL      0.250685
    134 H61         7.4330   -2.8670    1.2770 h1        1 MOL      0.130209
    135 H62         8.8100   -3.2770   -1.3940 h1        1 MOL     -0.049650
    136 H63         7.5910   -5.1180   -0.9880 ho        1 MOL      0.360290
    137 H64        10.6640   -4.0620    0.0980 hc        1 MOL      0.102647
    138 H65        10.3060   -2.4000    0.3510 hc        1 MOL      0.102647
    139 H66         9.6930   -3.6130    1.5300 hc        1 MOL      0.102647
    140 N12         7.0520   -0.8320   -1.2680 n         1 MOL     -0.266326
    141 C43         7.0280    0.6490   -1.5440 c3        1 MOL     -0.067708
    142 C44         6.2570    1.4670   -0.5470 c         1 MOL      0.217725
    143 O21         6.7290    2.4920   -0.0750 o         1 MOL     -0.457212
    144 C45         6.6740    0.8000   -3.0670 c3        1 MOL     -0.051152
    145 C46         6.3700    2.2830   -3.3720 c3        1 MOL      0.077414
    146 C47         6.2360    2.6590   -4.8440 c3        1 MOL     -0.003029
    147 C48         6.7000    4.0920   -5.1480 c3        1 MOL      0.180183
    148 N13         5.8800    4.6790   -6.2140 n4        1 MOL     -0.442837
    149 H67         6.7290   -1.4680   -1.9820 hn        1 MOL      0.213971
    150 H68         8.0290    1.0480   -1.4260 h1        1 MOL      0.158365
    151 H69         5.8100    0.2460   -3.4290 hc        1 MOL      0.017863
    152 H70         7.5310    0.5330   -3.6780 hc        1 MOL      0.017863
    153 H71         7.2720    2.7860   -3.0110 hc        1 MOL     -0.000762
    154 H72         5.4480    2.4670   -2.8360 hc        1 MOL     -0.000762
    155 H73         5.1600    2.6120   -5.0010 hc        1 MOL      0.010618
    156 H74         6.8090    2.0660   -5.5580 hc        1 MOL      0.010618
    157 H75         7.7370    4.0200   -5.5010 hx        1 MOL      0.048988
    158 H76         6.5750    4.7200   -4.2790 hx        1 MOL      0.048988
    159 H77         5.1130    4.0470   -6.3430 hn        1 MOL      0.324850
    160 H78         5.4980    5.5500   -5.8780 hn        1 MOL      0.324850
    161 H79         6.3410    4.7470   -7.1110 hn        1 MOL      0.324850
    162 N14         5.0080    1.0720   -0.1670 n         1 MOL      0.061359
    163 C49         4.1860    1.7690    0.8360 c3        1 MOL     -0.057234
    164 C50         4.7530    1.7570    2.2510 c         1 MOL      0.371685
    165 O22         4.9220    2.8090    2.8710 o         1 MOL     -0.547882
    166 C51         2.7490    1.1690    0.7310 c3        1 MOL     -0.256255
    167 C52         2.0010    1.5090   -0.5550 c3        1 MOL     -0.033007
    168 C53         0.6330    0.7870   -0.7120 c         1 MOL      0.638213
    169 O23         0.5220   -0.4120   -0.9710 o         1 MOL     -0.663363
    170 O24        -0.3920    1.4600   -0.6580 o         1 MOL     -0.663363
    171 H80         4.7760    0.2090   -0.6460 hn        1 MOL      0.064009
    172 H81         4.0400    2.8180    0.5480 h1        1 MOL      0.064200
    173 H82         2.0770    1.4460    1.5420 hc        1 MOL      0.129714
    174 H83         2.7710    0.0880    0.8250 hc        1 MOL      0.129714
    175 H84         2.5190    1.3460   -1.5010 hc        1 MOL      0.001861
    176 H85         1.8350    2.5790   -0.4580 hc        1 MOL      0.001861
    177 N15         5.2450    0.6230    2.6630 n         1 MOL      0.048102
    178 C54         5.8880    0.3340    3.9480 c3        1 MOL     -0.200423
    179 H86         5.2640   -0.3540    4.5190 h1        1 MOL      0.084380
    180 H87         6.8630   -0.1200    3.7730 h1        1 MOL      0.084380
    181 H88         6.0130    1.2610    4.5090 h1        1 MOL      0.084380
    182 H89         5.0750   -0.1260    2.0050 hn        1 MOL      0.074467
    183 Ca1        -2.0440   -0.4350   -1.5160 Ca        1 MOL      1.722833
    184 O25        -0.9320    0.2750   -3.8540 oh        1 MOL     -0.827827
    185 H90        -0.8560   -0.4720   -4.4440 ho        1 MOL      0.380269
    186 H91        -1.5550    0.8580   -4.2740 ho        1 MOL      0.380269
    187 O26        -1.1610   -2.8180   -2.4610 oh        1 MOL     -0.827827
    188 H92        -1.6330   -3.5710   -2.1130 ho        1 MOL      0.380269
    189 H93        -0.2860   -3.1560   -2.6690 ho        1 MOL      0.380269
@<TRIPOS>BOND
     1    1    2 1   
     2    1    4 1   
     3    1    5 1   
     4    1    6 1   
     5    2    3 2   
     6    2    7 1   
     7    7    8 1   
     8    7   15 1   
     9    8    9 1   
    10    8   11 1   
    11    8   16 1   
    12    9   10 2   
    13    9   19 1   
    14   11   12 1   
    15   11   17 1   
    16   11   18 1   
    17   12   13 1   
    18   12   14 1   
    19   19   20 1   
    20   19   28 1   
    21   20   21 1   
    22   20   23 1   
    23   20   29 1   
    24   21   22 2   
    25   21   41 1   
    26   23   24 1   
    27   23   30 1   
    28   23   31 1   
    29   24   25 1   
    30   24   32 1   
    31   24   33 1   
    32   25   26 1   
    33   25   34 1   
    34   25   35 1   
    35   26   27 1   
    36   26   36 1   
    37   26   37 1   
    38   27   38 1   
    39   27   39 1   
    40   27   40 1   
    41   41   42 1   
    42   41   49 1   
    43   42   43 1   
    44   42   45 1   
    45   42   50 1   
    46   43   44 2   
    47   43   53 1   
    48   45   46 1   
    49   45   51 1   
    50   45   52 1   
    51   46   47 1   
    52   46   48 1   
    53   53   54 1   
    54   53   57 1   
    55   54   55 1   
    56   54   58 1   
    57   54   59 1   
    58   55   56 2   
    59   55   60 1   
    60   60   61 1   
    61   60   68 1   
    62   61   62 1   
    63   61   64 1   
    64   61   69 1   
    65   62   63 2   
    66   62   72 1   
    67   64   65 1   
    68   64   70 1   
    69   64   71 1   
    70   65   66 1   
    71   65   67 1   
    72   72   73 1   
    73   72   76 1   
    74   73   74 1   
    75   73   77 1   
    76   73   78 1   
    77   74   75 2   
    78   74   79 1   
    79   79   80 1   
    80   79   86 1   
    81   80   81 1   
    82   80   83 1   
    83   80   87 1   
    84   81   82 2   
    85   81   93 1   
    86   83   84 1   
    87   83   85 1   
    88   83   88 1   
    89   84   90 1   
    90   84   91 1   
    91   84   92 1   
    92   85   89 1   
    93   93   94 1   
    94   93  101 1   
    95   94   95 1   
    96   94   97 1   
    97   94  102 1   
    98   95   96 2   
    99   95  112 1   
   100   97   98 1   
   101   97   99 1   
   102   97  103 1   
   103   98  100 1   
   104   98  104 1   
   105   98  105 1   
   106   99  106 1   
   107   99  107 1   
   108   99  108 1   
   109  100  109 1   
   110  100  110 1   
   111  100  111 1   
   112  112  113 1   
   113  112  119 1   
   114  113  114 1   
   115  113  116 1   
   116  113  120 1   
   117  114  115 2   
   118  114  126 1   
   119  116  117 1   
   120  116  118 1   
   121  116  121 1   
   122  117  123 1   
   123  117  124 1   
   124  117  125 1   
   125  118  122 1   
   126  126  127 1   
   127  126  133 1   
   128  127  128 1   
   129  127  130 1   
   130  127  134 1   
   131  128  129 2   
   132  128  140 1   
   133  130  131 1   
   134  130  132 1   
   135  130  135 1   
   136  131  137 1   
   137  131  138 1   
   138  131  139 1   
   139  132  136 1   
   140  140  141 1   
   141  140  149 1   
   142  141  142 1   
   143  141  144 1   
   144  141  150 1   
   145  142  143 2   
   146  142  162 1   
   147  144  145 1   
   148  144  151 1   
   149  144  152 1   
   150  145  146 1   
   151  145  153 1   
   152  145  154 1   
   153  146  147 1   
   154  146  155 1   
   155  146  156 1   
   156  147  148 1   
   157  147  157 1   
   158  147  158 1   
   159  148  159 1   
   160  148  160 1   
   161  148  161 1   
   162  162  163 1   
   163  162  171 1   
   164  163  164 1   
   165  163  166 1   
   166  163  172 1   
   167  164  165 2   
   168  164  177 1   
   169  166  167 1   
   170  166  173 1   
   171  166  174 1   
   172  167  168 1   
   173  167  175 1   
   174  167  176 1   
   175  168  169 1   
   176  168  170 1   
   177  177  178 1   
   178  177  182 1   
   179  178  179 1   
   180  178  180 1   
   181  178  181 1   
   182  184  185 1   
   183  184  186 1   
   184  187  188 1   
   185  187  189 1   
@<TRIPOS>SUBSTRUCTURE
     1 MOL         1 TEMP              0 ****  ****    0 ROOT
