@<TRIPOS>MOLECULE
MOL
  179   176     1     0     0
SMALL
resp


@<TRIPOS>ATOM
      1 C1          2.2690    2.7770    5.5900 c3        1 MOL     -0.237045
      2 C2          1.7410    2.4710    4.1420 c         1 MOL      0.680258
      3 O1          2.5880    2.1370    3.2740 o         1 MOL     -0.589551
      4 H1          3.1990    3.3430    5.5240 hc        1 MOL      0.062631
      5 H2          1.5260    3.3620    6.1320 hc        1 MOL      0.062631
      6 H3          2.4510    1.8400    6.1160 hc        1 MOL      0.062631
      7 N1          0.4350    2.3960    3.8860 n         1 MOL     -0.647290
      8 C3         -0.2530    2.2890    2.5770 c3        1 MOL      0.165436
      9 C4         -0.2610    3.6530    1.8510 c         1 MOL      0.563381
     10 O2         -0.8510    4.6060    2.4160 o         1 MOL     -0.568067
     11 C5         -1.6920    1.7170    2.9350 c3        1 MOL     -0.126951
     12 C6         -2.7110    1.4970    1.7770 c         1 MOL      0.715328
     13 O3         -3.8670    1.3180    2.1460 o         1 MOL     -0.658700
     14 O4         -2.3200    1.5080    0.5850 o         1 MOL     -0.658700
     15 H4         -0.2540    2.6080    4.5880 hn        1 MOL      0.338485
     16 H5          0.3410    1.6040    1.9610 h1        1 MOL     -0.006095
     17 H6         -2.0710    2.3810    3.7200 hc        1 MOL      0.021552
     18 H7         -1.5540    0.7220    3.3510 hc        1 MOL      0.021552
     19 N2          0.4400    3.7420    0.7220 n         1 MOL     -0.325538
     20 C7          0.7930    5.0190    0.1020 c3        1 MOL     -0.228057
     21 C8         -0.4500    5.6140   -0.6750 c         1 MOL      0.477138
     22 O5         -0.5640    6.8050   -0.9100 o         1 MOL     -0.546650
     23 C9          1.9600    4.7590   -0.9120 c3        1 MOL      0.046174
     24 C10         2.6020    5.8840   -1.6970 c3        1 MOL     -0.244837
     25 C11         2.9240    7.2120   -0.9100 c3        1 MOL     -0.020742
     26 C12         4.0090    6.9090    0.1700 c3        1 MOL      0.092310
     27 N3          4.2700    8.0330    1.1030 n4        1 MOL     -0.554433
     28 H8          0.8040    2.8860    0.3480 hn        1 MOL      0.256209
     29 H9          1.2830    5.6420    0.8410 h1        1 MOL      0.143283
     30 H10         1.6360    3.9800   -1.6090 hc        1 MOL      0.056316
     31 H11         2.7170    4.1350   -0.4380 hc        1 MOL      0.056316
     32 H12         1.8740    6.1560   -2.4600 hc        1 MOL      0.102257
     33 H13         3.5650    5.5640   -2.0950 hc        1 MOL      0.102257
     34 H14         2.0800    7.5950   -0.3320 hc        1 MOL      0.045532
     35 H15         3.2110    7.9630   -1.6500 hc        1 MOL      0.045532
     36 H16         4.9380    6.6100   -0.3190 hx        1 MOL      0.080573
     37 H17         3.7100    6.0560    0.7620 hx        1 MOL      0.080573
     38 H18         3.4410    8.1540    1.6720 hn        1 MOL      0.378513
     39 H19         4.9780    7.8030    1.7860 hn        1 MOL      0.378513
     40 H20         4.5730    8.8410    0.5780 hn        1 MOL      0.378513
     41 N4         -1.3520    4.7610   -1.1240 n         1 MOL     -0.146234
     42 C13        -2.5500    5.0360   -1.9230 c3        1 MOL      0.129214
     43 C14        -3.8360    4.8040   -1.1970 c         1 MOL      0.384586
     44 O6         -4.8210    5.4710   -1.5330 o         1 MOL     -0.545794
     45 C15        -2.5990    4.2290   -3.2800 c3        1 MOL     -0.240943
     46 C16        -2.2800    2.7820   -2.9060 c         1 MOL      0.710527
     47 O7         -3.2270    2.0440   -2.6940 o         1 MOL     -0.713012
     48 O8         -1.0860    2.3610   -2.7160 o         1 MOL     -0.713012
     49 H21        -1.1740    3.7820   -0.9430 hn        1 MOL      0.053901
     50 H22        -2.6030    6.0770   -2.2100 h1        1 MOL      0.077166
     51 H23        -1.8290    4.6820   -3.9040 hc        1 MOL      0.071778
     52 H24        -3.5350    4.2600   -3.8330 hc        1 MOL      0.071778
     53 N5         -3.8420    4.0390   -0.1110 n         1 MOL     -0.120619
     54 C17        -4.8830    3.8860    0.8930 c3        1 MOL     -0.158190
     55 C18        -5.9350    2.7730    0.4830 c         1 MOL      0.531173
     56 O9         -7.0720    2.8140    0.9400 o         1 MOL     -0.591254
     57 H25        -3.0020    3.5240    0.1080 hn        1 MOL      0.100138
     58 H26        -5.3590    4.8490    1.0640 h1        1 MOL      0.108131
     59 H27        -4.5110    3.5830    1.8730 h1        1 MOL      0.108131
     60 N6         -5.6600    1.9550   -0.5190 n         1 MOL     -0.230034
     61 C19        -6.5950    0.9720   -1.0670 c3        1 MOL     -0.025207
     62 C20        -6.7150   -0.2530   -0.1010 c         1 MOL      0.241503
     63 O10        -7.1870   -1.2770   -0.5660 o         1 MOL     -0.427665
     64 C21        -6.1030    0.4520   -2.4630 c3        1 MOL     -0.254771
     65 C22        -4.9230   -0.4880   -2.4790 c         1 MOL      0.730851
     66 N7         -4.9720   -1.2520   -3.5320 n         1 MOL     -0.714208
     67 O11        -4.0610   -0.5830   -1.6400 o         1 MOL     -0.634239
     68 H28        -4.7350    2.0660   -0.8900 hn        1 MOL      0.188940
     69 H29        -7.5860    1.3680   -1.2510 h1        1 MOL      0.148164
     70 H30        -5.8810    1.3170   -3.0910 hc        1 MOL      0.091139
     71 H31        -6.9600   -0.0650   -2.8950 hc        1 MOL      0.091139
     72 H32        -5.7720   -1.1250   -4.1460 hn        1 MOL      0.333328
     73 H33        -4.2760   -1.9510   -3.7520 hn        1 MOL      0.333328
     74 N8         -6.1550   -0.2640    1.0970 n         1 MOL     -0.044540
     75 C23        -6.2530   -1.3130    2.1030 c3        1 MOL     -0.253579
     76 C24        -5.1700   -2.4260    2.0280 c         1 MOL      0.579792
     77 O12        -5.3980   -3.4800    2.6790 o         1 MOL     -0.533533
     78 H34        -5.5030    0.4570    1.3660 hn        1 MOL      0.213552
     79 H35        -7.2170   -1.8000    2.1960 h1        1 MOL      0.118194
     80 H36        -6.1130   -0.8100    3.0670 h1        1 MOL      0.118194
     81 N9         -4.0800   -2.1900    1.2760 n         1 MOL     -0.391197
     82 C25        -2.9550   -3.1390    1.3320 c3        1 MOL      0.192645
     83 C26        -1.5730   -2.4590    1.2570 c         1 MOL      0.537539
     84 O13        -1.4110   -1.3550    0.6680 o         1 MOL     -0.603843
     85 C27        -3.1030   -4.0960    0.0780 c3        1 MOL     -0.148088
     86 C28        -4.4240   -4.9090    0.0620 ca        1 MOL      0.145616
     87 C29        -5.5500   -4.4810   -0.6580 ca        1 MOL     -0.220388
     88 C30        -4.3660   -6.2380    0.5230 ca        1 MOL     -0.220388
     89 C31        -6.6830   -5.2900   -0.8180 ca        1 MOL     -0.267629
     90 C32        -5.4720   -7.0980    0.3210 ca        1 MOL     -0.267629
     91 C33        -6.5420   -6.5730   -0.3570 ca        1 MOL      0.398128
     92 O14        -7.5260   -7.4090   -0.4900 oh        1 MOL     -0.477863
     93 H37        -4.0210   -1.3180    0.7750 hn        1 MOL      0.197966
     94 H38        -2.9810   -3.7690    2.2230 h1        1 MOL      0.012164
     95 H39        -2.2220   -4.7390    0.1670 hc        1 MOL      0.028322
     96 H40        -3.0290   -3.5050   -0.8380 hc        1 MOL      0.028322
     97 H41        -5.4740   -3.5020   -1.0840 ha        1 MOL      0.139794
     98 H42        -3.4920   -6.6290    1.0210 ha        1 MOL      0.139794
     99 H43        -7.5040   -4.9640   -1.4380 ha        1 MOL      0.159030
    100 H44        -5.6010   -8.0120    0.8690 ha        1 MOL      0.159030
    101 H45        -7.2850   -8.3220   -0.2870 ho        1 MOL      0.332867
    102 N10        -0.5280   -3.2330    1.7300 n         1 MOL     -0.471709
    103 C34         0.8830   -2.7410    1.6680 c3        1 MOL     -0.018324
    104 C35         1.7120   -3.7370    0.8350 c         1 MOL      0.485604
    105 O15         1.7370   -4.9340    1.2170 o         1 MOL     -0.525453
    106 C36         1.4760   -2.6190    3.1440 c3        1 MOL      0.067718
    107 C37         0.6910   -1.5710    3.9610 c3        1 MOL      0.156037
    108 C38         2.9860   -2.2370    3.1360 c3        1 MOL     -0.404426
    109 C39         0.9440   -1.7320    5.4800 c3        1 MOL     -0.066485
    110 H46        -0.6880   -4.0920    2.2280 hn        1 MOL      0.325165
    111 H47         0.9840   -1.7260    1.2860 h1        1 MOL      0.078471
    112 H48         1.3990   -3.5950    3.6200 hc        1 MOL      0.025790
    113 H49        -0.3640   -1.7850    3.7490 hc        1 MOL     -0.016735
    114 H50         0.9190   -0.5640    3.6140 hc        1 MOL     -0.016735
    115 H51         3.5420   -2.7090    2.3220 hc        1 MOL      0.104053
    116 H52         3.1820   -1.1840    2.9040 hc        1 MOL      0.104053
    117 H53         3.2700   -2.5650    4.1370 hc        1 MOL      0.104053
    118 H54         0.5820   -2.7360    5.7210 hc        1 MOL      0.008473
    119 H55         1.9990   -1.6460    5.7300 hc        1 MOL      0.008473
    120 H56         0.2630   -1.0690    6.0150 hc        1 MOL      0.008473
    121 N11         2.3810   -3.2230   -0.2250 n         1 MOL     -0.202200
    122 C40         3.3660   -3.9400   -0.9790 c3        1 MOL     -0.056032
    123 C41         4.7940   -3.8180   -0.4760 c         1 MOL      0.512348
    124 O16         5.1080   -2.9540    0.3000 o         1 MOL     -0.329215
    125 C42         3.2460   -3.5460   -2.4620 c3        1 MOL     -0.135106
    126 O17         3.6210   -2.2510   -2.7360 oh        1 MOL     -0.388909
    127 H57         2.1620   -2.2600   -0.4490 hn        1 MOL      0.190432
    128 H58         3.0780   -4.9730   -0.7940 h1        1 MOL      0.067754
    129 H59         2.1980   -3.6630   -2.7320 h1        1 MOL      0.085537
    130 H60         3.7720   -4.2490   -3.1180 h1        1 MOL      0.085537
    131 H61         3.4500   -2.1020   -3.6710 ho        1 MOL      0.374375
    132 N12         5.6700   -4.7130   -0.9450 n         1 MOL     -0.501093
    133 C43         7.0970   -4.5880   -0.6710 c3        1 MOL      0.154724
    134 C44         7.7860   -3.2320   -0.9670 c         1 MOL      0.412134
    135 O18         8.7670   -2.9030   -0.3340 o         1 MOL     -0.488542
    136 C45         7.7370   -5.7070   -1.4860 c3        1 MOL     -0.273578
    137 H62         5.3600   -5.2000   -1.7750 hn        1 MOL      0.303264
    138 H63         7.2500   -4.7390    0.4020 h1        1 MOL      0.083320
    139 H64         7.1200   -6.5560   -1.2050 hc        1 MOL      0.085950
    140 H65         7.6320   -5.6640   -2.5700 hc        1 MOL      0.085950
    141 H66         8.7600   -5.9320   -1.1910 hc        1 MOL      0.085950
    142 N13         7.2610   -2.4810   -1.9730 n         1 MOL     -0.322898
    143 C46         7.7220   -1.1960   -2.4710 c3        1 MOL      0.120760
    144 C47         7.1970   -0.0430   -1.5800 c         1 MOL      0.333895
    145 O19         7.7550    1.0140   -1.4280 o         1 MOL     -0.526663
    146 C48         7.3320   -1.0050   -3.9830 c3        1 MOL     -0.214342
    147 H67         6.4380   -2.8650   -2.4060 hn        1 MOL      0.196032
    148 H68         8.8100   -1.1870   -2.3330 h1        1 MOL      0.089236
    149 H69         7.9260   -1.7450   -4.5230 hc        1 MOL      0.066533
    150 H70         6.2640   -1.1660   -4.1550 hc        1 MOL      0.066533
    151 H71         7.6230   -0.0150   -4.3430 hc        1 MOL      0.066533
    152 N14         6.0640   -0.2960   -1.0140 n         1 MOL      0.007417
    153 C49         5.3770    0.7260   -0.1080 c3        1 MOL     -0.080620
    154 C50         5.9860    0.6930    1.2930 c         1 MOL      0.501753
    155 O20         6.2470    1.7220    1.8980 o         1 MOL     -0.545696
    156 C51         3.8360    0.3980   -0.1510 c3        1 MOL      0.065128
    157 C52         3.0850    1.0950   -1.2680 c3        1 MOL     -0.046751
    158 C53         1.5430    0.7560   -1.3240 c         1 MOL      0.826832
    159 O21         0.8170    1.1990   -0.4640 o         1 MOL     -0.765895
    160 O22         1.1440    0.2110   -2.3240 o         1 MOL     -0.765895
    161 H72         5.5690   -1.1530   -1.2340 hn        1 MOL     -0.053314
    162 H73         5.5680    1.7390   -0.4580 h1        1 MOL      0.073294
    163 H74         3.4460    0.7810    0.7940 hc        1 MOL      0.030191
    164 H75         3.6120   -0.6620   -0.2570 hc        1 MOL      0.030191
    165 H76         3.5280    0.9350   -2.2520 hc        1 MOL     -0.029732
    166 H77         3.1670    2.1630   -1.0440 hc        1 MOL     -0.029732
    167 N15         6.2200   -0.5520    1.7750 n         1 MOL     -0.180437
    168 C54         6.7040   -0.7960    3.1590 c3        1 MOL     -0.223757
    169 H78         7.3690    0.0140    3.4590 h1        1 MOL      0.101375
    170 H79         5.8540   -0.8390    3.8390 h1        1 MOL      0.101375
    171 H80         7.2450   -1.7410    3.1930 h1        1 MOL      0.101375
    172 H81         5.9680   -1.3740    1.2370 hn        1 MOL      0.121102
    173 Ca1        -1.4390    0.1310   -1.5110 Ca        1 MOL      1.755381
    174 O23        -0.4590   -2.4150   -2.3920 oh        1 MOL     -0.836795
    175 H82        -0.7920   -3.3110   -2.4850 ho        1 MOL      0.408012
    176 H83         0.1070   -2.2890   -3.1580 ho        1 MOL      0.408012
    177 O24        -1.9110   -0.2630   -4.0800 oh        1 MOL     -0.836795
    178 H84        -2.2690    0.4900   -4.5490 ho        1 MOL      0.408012
    179 H85        -2.0870   -1.0130   -4.6620 ho        1 MOL      0.408012
@<TRIPOS>BOND
     1    1    2 1   
     2    1    4 1   
     3    1    5 1   
     4    1    6 1   
     5    2    3 2   
     6    2    7 1   
     7    7    8 1   
     8    7   15 1   
     9    8    9 1   
    10    8   11 1   
    11    8   16 1   
    12    9   10 2   
    13    9   19 1   
    14   11   12 1   
    15   11   17 1   
    16   11   18 1   
    17   12   13 1   
    18   12   14 1   
    19   19   20 1   
    20   19   28 1   
    21   20   21 1   
    22   20   23 1   
    23   20   29 1   
    24   21   22 2   
    25   21   41 1   
    26   23   24 1   
    27   23   30 1   
    28   23   31 1   
    29   24   25 1   
    30   24   32 1   
    31   24   33 1   
    32   25   26 1   
    33   25   34 1   
    34   25   35 1   
    35   26   27 1   
    36   26   36 1   
    37   26   37 1   
    38   27   38 1   
    39   27   39 1   
    40   27   40 1   
    41   41   42 1   
    42   41   49 1   
    43   42   43 1   
    44   42   45 1   
    45   42   50 1   
    46   43   44 2   
    47   43   53 1   
    48   45   46 1   
    49   45   51 1   
    50   45   52 1   
    51   46   47 1   
    52   46   48 1   
    53   53   54 1   
    54   53   57 1   
    55   54   55 1   
    56   54   58 1   
    57   54   59 1   
    58   55   56 2   
    59   55   60 1   
    60   60   61 1   
    61   60   68 1   
    62   61   62 1   
    63   61   64 1   
    64   61   69 1   
    65   62   63 2   
    66   62   74 1   
    67   64   65 1   
    68   64   70 1   
    69   64   71 1   
    70   65   66 1   
    71   65   67 2   
    72   66   72 1   
    73   66   73 1   
    74   74   75 1   
    75   74   78 1   
    76   75   76 1   
    77   75   79 1   
    78   75   80 1   
    79   76   77 2   
    80   76   81 1   
    81   81   82 1   
    82   81   93 1   
    83   82   83 1   
    84   82   85 1   
    85   82   94 1   
    86   83   84 2   
    87   83  102 1   
    88   85   86 1   
    89   85   95 1   
    90   85   96 1   
    91   86   87 ar  
    92   86   88 ar  
    93   87   89 ar  
    94   87   97 1   
    95   88   90 ar  
    96   88   98 1   
    97   89   91 ar  
    98   89   99 1   
    99   90   91 ar  
   100   90  100 1   
   101   91   92 1   
   102   92  101 1   
   103  102  103 1   
   104  102  110 1   
   105  103  104 1   
   106  103  106 1   
   107  103  111 1   
   108  104  105 2   
   109  104  121 1   
   110  106  107 1   
   111  106  108 1   
   112  106  112 1   
   113  107  109 1   
   114  107  113 1   
   115  107  114 1   
   116  108  115 1   
   117  108  116 1   
   118  108  117 1   
   119  109  118 1   
   120  109  119 1   
   121  109  120 1   
   122  121  122 1   
   123  121  127 1   
   124  122  123 1   
   125  122  125 1   
   126  122  128 1   
   127  123  124 2   
   128  123  132 1   
   129  125  126 1   
   130  125  129 1   
   131  125  130 1   
   132  126  131 1   
   133  132  133 1   
   134  132  137 1   
   135  133  134 1   
   136  133  136 1   
   137  133  138 1   
   138  134  135 2   
   139  134  142 1   
   140  136  139 1   
   141  136  140 1   
   142  136  141 1   
   143  142  143 1   
   144  142  147 1   
   145  143  144 1   
   146  143  146 1   
   147  143  148 1   
   148  144  145 2   
   149  144  152 1   
   150  146  149 1   
   151  146  150 1   
   152  146  151 1   
   153  152  153 1   
   154  152  161 1   
   155  153  154 1   
   156  153  156 1   
   157  153  162 1   
   158  154  155 2   
   159  154  167 1   
   160  156  157 1   
   161  156  163 1   
   162  156  164 1   
   163  157  158 1   
   164  157  165 1   
   165  157  166 1   
   166  158  159 1   
   167  158  160 1   
   168  167  168 1   
   169  167  172 1   
   170  168  169 1   
   171  168  170 1   
   172  168  171 1   
   173  174  175 1   
   174  174  176 1   
   175  177  178 1   
   176  177  179 1   
@<TRIPOS>SUBSTRUCTURE
     1 MOL         1 TEMP              0 ****  ****    0 ROOT
