@<TRIPOS>MOLECULE
MOL
  175   173     1     0     0
SMALL
resp


@<TRIPOS>ATOM
      1 C1          0.9500    3.6770    5.5390 c3        1 MOL     -0.401859
      2 C2          0.1510    3.7210    4.2130 c         1 MOL      0.749126
      3 O1          0.7260    3.9340    3.1640 o         1 MOL     -0.553610
      4 H1          0.5150    4.3810    6.2490 hc        1 MOL      0.099968
      5 H2          0.9080    2.6700    5.9560 hc        1 MOL      0.099968
      6 H3          1.9880    3.9490    5.3480 hc        1 MOL      0.099968
      7 N1         -1.1780    3.4490    4.2060 n         1 MOL     -0.742762
      8 C3         -1.9630    3.2320    2.9660 c3        1 MOL      0.331703
      9 C4         -1.9140    4.4780    2.0410 c         1 MOL      0.559842
     10 O2         -2.1040    5.6120    2.5440 o         1 MOL     -0.594745
     11 C5         -3.3830    2.6610    3.2350 c3        1 MOL     -0.404653
     12 C6         -4.0980    2.2770    1.9300 c         1 MOL      0.714156
     13 O3         -3.3890    1.9690    0.9520 o         1 MOL     -0.666075
     14 O4         -5.3400    2.3170    1.9140 o         1 MOL     -0.666075
     15 H4         -1.6520    3.3510    5.0890 hn        1 MOL      0.329148
     16 H5         -1.3310    2.4790    2.4930 h1        1 MOL     -0.012188
     17 H6         -3.9330    3.4520    3.7410 hc        1 MOL      0.089450
     18 H7         -3.3240    1.7930    3.8890 hc        1 MOL      0.089450
     19 N2         -1.7120    4.3430    0.6980 n         1 MOL     -0.426120
     20 C7         -1.7090    5.4400   -0.3390 c3        1 MOL      0.085935
     21 C8         -2.8070    5.1960   -1.4240 c         1 MOL      0.490283
     22 O5         -2.9850    6.0850   -2.2570 o         1 MOL     -0.570544
     23 C9         -0.3320    5.4740   -1.1040 c3        1 MOL     -0.086508
     24 H8         -1.4790    3.4020    0.4060 hn        1 MOL      0.345769
     25 H9         -1.8250    6.4310    0.0830 h1        1 MOL      0.070250
     26 H10         0.4020    5.8750   -0.4060 hc        1 MOL      0.025647
     27 H11        -0.0340    4.5080   -1.5080 hc        1 MOL      0.025647
     28 H12        -0.2820    6.2000   -1.9180 hc        1 MOL      0.025647
     29 N3         -3.5530    4.0830   -1.4040 n         1 MOL     -0.412816
     30 C10        -4.3410    3.7290   -2.6170 c3        1 MOL      0.054969
     31 C11        -5.6660    2.8940   -2.2770 c         1 MOL      0.398427
     32 O6         -6.4820    2.8020   -3.1900 o         1 MOL     -0.544782
     33 C12        -3.4820    3.0740   -3.7070 c3        1 MOL     -0.055624
     34 C13        -2.7010    1.7910   -3.2340 c         1 MOL      0.724458
     35 O7         -3.0680    1.1930   -2.1670 o         1 MOL     -0.688169
     36 O8         -1.8150    1.2850   -3.9290 o         1 MOL     -0.688169
     37 H13        -3.3100    3.3820   -0.7260 hn        1 MOL      0.186499
     38 H14        -4.7420    4.6510   -3.0440 h1        1 MOL      0.083038
     39 H15        -2.7650    3.7350   -4.1970 hc        1 MOL      0.010915
     40 H16        -4.0510    2.7110   -4.5690 hc        1 MOL      0.010915
     41 N4         -5.9120    2.4200   -1.0450 n         1 MOL     -0.128622
     42 C14        -7.1710    1.7520   -0.5880 c3        1 MOL     -0.306626
     43 C15        -7.3470    0.3360   -1.0780 c         1 MOL      0.473040
     44 O9         -8.4560   -0.1830   -1.2140 o         1 MOL     -0.582849
     45 H17        -5.2020    2.6420   -0.3610 hn        1 MOL      0.160658
     46 H18        -8.0270    2.2430   -1.0450 h1        1 MOL      0.146984
     47 H19        -7.2220    1.6990    0.4990 h1        1 MOL      0.146984
     48 N5         -6.2640   -0.3480   -1.5950 n         1 MOL      0.000323
     49 C16        -6.4120   -1.6340   -2.3650 c3        1 MOL     -0.097261
     50 C17        -6.4440   -2.7830   -1.4210 c         1 MOL      0.517452
     51 O10        -6.6610   -3.9070   -1.8210 o         1 MOL     -0.538100
     52 C18        -5.2100   -1.6580   -3.3060 c3        1 MOL     -0.178228
     53 C19        -3.8190   -1.8810   -2.6790 c         1 MOL      0.527644
     54 N6         -2.7600   -2.0230   -3.4180 n         1 MOL     -0.642716
     55 O11        -3.6170   -1.9650   -1.5180 o         1 MOL     -0.380153
     56 H20        -5.4130    0.1930   -1.6480 hn        1 MOL      0.015481
     57 H21        -7.3530   -1.6300   -2.9150 h1        1 MOL      0.120898
     58 H22        -5.1300   -0.7030   -3.8230 hc        1 MOL      0.064286
     59 H23        -5.2680   -2.4530   -4.0630 hc        1 MOL      0.064286
     60 H24        -2.7710   -2.0620   -4.4240 hn        1 MOL      0.335454
     61 H25        -1.9070   -2.1380   -2.8950 hn        1 MOL      0.335454
     62 N7         -6.3220   -2.5040   -0.0990 n         1 MOL     -0.270865
     63 C20        -6.6800   -3.4740    0.9950 c3        1 MOL     -0.204019
     64 C21        -5.4550   -4.1320    1.6130 c         1 MOL      0.494481
     65 O12        -5.6080   -4.9250    2.5500 o         1 MOL     -0.582937
     66 H26        -6.0920   -1.5640    0.1880 hn        1 MOL      0.194341
     67 H27        -7.4030   -4.2580    0.7690 h1        1 MOL      0.110098
     68 H28        -7.0460   -2.7340    1.7090 h1        1 MOL      0.110098
     69 N8         -4.2440   -3.8330    1.1270 n         1 MOL     -0.041782
     70 C22        -2.9630   -4.5040    1.4620 c3        1 MOL     -0.318627
     71 C23        -1.7550   -3.6110    1.4690 c         1 MOL      0.623434
     72 O13        -1.7900   -2.6610    0.6880 o         1 MOL     -0.526078
     73 C24        -2.5990   -5.5610    0.3650 c3        1 MOL      0.565931
     74 C25        -3.7560   -6.6400    0.4100 c3        1 MOL     -0.554819
     75 O14        -2.5250   -5.0310   -0.9410 oh        1 MOL     -0.628270
     76 H29        -4.1720   -3.1080    0.4260 hn        1 MOL      0.043052
     77 H30        -3.0450   -5.0380    2.4100 h1        1 MOL      0.099740
     78 H31        -1.6470   -6.0110    0.6220 h1        1 MOL     -0.051104
     79 H32        -2.1060   -4.1720   -0.8980 ho        1 MOL      0.378334
     80 H33        -4.7400   -6.1750    0.3670 hc        1 MOL      0.141456
     81 H34        -3.8360   -7.3010   -0.4570 hc        1 MOL      0.141456
     82 H35        -3.6610   -7.2770    1.2920 hc        1 MOL      0.141456
     83 N9         -0.6750   -3.8640    2.2100 n         1 MOL     -0.581608
     84 C26         0.5470   -3.0380    2.0730 c3        1 MOL      0.133127
     85 C27         1.2150   -3.2560    0.7310 c         1 MOL      0.612909
     86 O15         1.3750   -4.3950    0.3770 o         1 MOL     -0.602710
     87 C28         1.4780   -3.1340    3.2980 c3        1 MOL      0.034214
     88 C29         0.7850   -2.2810    4.4160 c3        1 MOL      0.260129
     89 C30         2.9420   -2.6050    3.0770 c3        1 MOL     -0.273913
     90 C31         1.5010   -2.4650    5.7520 c3        1 MOL     -0.158584
     91 H36        -0.6670   -4.7480    2.6950 hn        1 MOL      0.306749
     92 H37         0.0950   -2.0380    2.0740 h1        1 MOL     -0.113192
     93 H38         1.5050   -4.1870    3.5820 hc        1 MOL      0.020147
     94 H39        -0.2150   -2.6600    4.6390 hc        1 MOL     -0.058880
     95 H40         0.6270   -1.2460    4.1090 hc        1 MOL     -0.058880
     96 H41         2.9770   -1.5190    2.9770 hc        1 MOL      0.063395
     97 H42         3.6150   -2.8540    3.8990 hc        1 MOL      0.063395
     98 H43         3.3760   -3.0300    2.1690 hc        1 MOL      0.063395
     99 H44         1.6880   -3.5210    5.8840 hc        1 MOL      0.019206
    100 H45         2.4050   -1.8730    5.9060 hc        1 MOL      0.019206
    101 H46         0.8070   -2.1390    6.5210 hc        1 MOL      0.019206
    102 N10         1.6820   -2.2050    0.0980 n         1 MOL     -0.319226
    103 C32         2.6060   -2.1490   -0.9520 c3        1 MOL      0.138872
    104 C33         4.0090   -1.7220   -0.6470 c         1 MOL      0.508887
    105 O16         4.1810   -1.1530    0.4050 o         1 MOL     -0.407536
    106 C34         1.9970   -1.1850   -2.0290 c3        1 MOL     -0.277922
    107 C35         0.5690   -1.5090   -2.4410 c         1 MOL      0.749334
    108 O17        -0.4090   -1.1150   -1.7120 o         1 MOL     -0.686490
    109 O18         0.2720   -2.2930   -3.3870 o         1 MOL     -0.686490
    110 H47         1.4210   -1.2980    0.4730 hn        1 MOL      0.235691
    111 H48         2.7050   -3.1310   -1.4150 h1        1 MOL      0.034545
    112 H49         2.6960   -1.3800   -2.8460 hc        1 MOL      0.034534
    113 H50         2.0950   -0.1750   -1.6280 hc        1 MOL      0.034534
    114 N11         4.9840   -1.9120   -1.5430 n         1 MOL     -0.755268
    115 C36         6.3570   -1.5150   -1.2860 c3        1 MOL      0.544786
    116 C37         6.7220   -0.0430   -1.0060 c         1 MOL      0.140721
    117 O19         7.3490    0.1820    0.0290 o         1 MOL     -0.452051
    118 C38         7.2590   -2.2150   -2.3190 c3        1 MOL     -0.474465
    119 C39         8.7760   -1.9350   -2.0920 ca        1 MOL      0.357085
    120 C40         9.3820   -2.5030   -0.9450 ca        1 MOL     -0.340220
    121 C41         9.5550   -1.2350   -3.0390 ca        1 MOL     -0.340220
    122 C42        10.7770   -2.3830   -0.7460 ca        1 MOL      0.045152
    123 C43        10.9240   -1.1510   -2.7970 ca        1 MOL      0.045152
    124 C44        11.5710   -1.8120   -1.7750 ca        1 MOL     -0.274223
    125 H51         4.7500   -2.3670   -2.4160 hn        1 MOL      0.376251
    126 H52         6.5120   -1.9530   -0.2930 h1        1 MOL      0.051679
    127 H53         7.0230   -1.7680   -3.2760 hc        1 MOL      0.115659
    128 H54         7.1360   -3.2910   -2.2350 hc        1 MOL      0.115659
    129 H55         8.7540   -2.9990   -0.2260 ha        1 MOL      0.155036
    130 H56         9.0690   -0.8270   -3.9100 ha        1 MOL      0.155036
    131 H57        11.3120   -2.8530    0.0570 ha        1 MOL      0.077530
    132 H58        11.4770   -0.6050   -3.5440 ha        1 MOL      0.077530
    133 H59        12.6320   -1.6520   -1.6660 ha        1 MOL      0.133937
    134 N12         6.2250    0.9680   -1.7200 n         1 MOL      0.049417
    135 C45         6.3580    2.4300   -1.4600 c3        1 MOL     -0.061279
    136 C46         5.7290    2.8810   -0.1240 c         1 MOL      0.312232
    137 O20         6.1500    3.8530    0.5290 o         1 MOL     -0.511743
    138 C47         5.7960    3.1120   -2.6850 c3        1 MOL      0.057119
    139 C48         5.6840    2.0390   -3.7400 c3        1 MOL     -0.001517
    140 C49         5.5200    0.7630   -2.9410 c3        1 MOL     -0.173609
    141 H60         7.4100    2.6970   -1.3730 h1        1 MOL      0.076982
    142 H61         4.8230    3.5560   -2.4570 hc        1 MOL      0.020946
    143 H62         6.3730    3.9530   -3.1030 hc        1 MOL      0.020946
    144 H63         4.8330    2.1990   -4.3980 hc        1 MOL      0.012658
    145 H64         6.6140    1.9340   -4.2990 hc        1 MOL      0.012658
    146 H65         4.4660    0.7460   -2.6680 h1        1 MOL      0.095698
    147 H66         5.8460   -0.1140   -3.5100 h1        1 MOL      0.095698
    148 N13         4.7660    2.1090    0.2860 n         1 MOL      0.019366
    149 C50         4.0700    2.1880    1.5710 c3        1 MOL     -0.260789
    150 C51         4.8180    1.5250    2.7330 c         1 MOL      0.484553
    151 O21         4.6900    1.8200    3.8960 o         1 MOL     -0.556458
    152 C52         2.6390    1.6060    1.5110 c3        1 MOL     -0.058799
    153 C53         1.6530    2.1540    0.4540 c3        1 MOL      0.166370
    154 C54         0.3650    1.3980    0.2920 c         1 MOL      0.475536
    155 O22        -0.5600    1.8310   -0.4350 o         1 MOL     -0.628248
    156 O23         0.1470    0.2360    0.8220 o         1 MOL     -0.628248
    157 H67         4.6470    1.2430   -0.2230 hn        1 MOL      0.083077
    158 H68         3.8580    3.2280    1.8120 h1        1 MOL      0.147983
    159 H69         2.1450    1.7080    2.4790 hc        1 MOL      0.051952
    160 H70         2.6100    0.5080    1.5070 hc        1 MOL      0.051952
    161 H71         2.1760    2.2930   -0.5000 hc        1 MOL     -0.016618
    162 H72         1.4870    3.1810    0.7560 hc        1 MOL     -0.016618
    163 N14         5.5960    0.4850    2.4340 n         1 MOL      0.032885
    164 C55         6.4430   -0.2540    3.3660 c3        1 MOL     -0.217230
    165 H73         6.7030   -1.2190    2.9320 h1        1 MOL      0.076694
    166 H74         7.3530    0.3130    3.5590 h1        1 MOL      0.076694
    167 H75         5.9060   -0.4110    4.3010 h1        1 MOL      0.076694
    168 H76         5.7400    0.1710    1.4830 hn        1 MOL      0.009630
    169 Ca1        -2.2570   -0.0540   -0.1770 Ca        1 MOL      1.579962
    170 O24        -4.4190   -0.6790    1.2780 oh        1 MOL     -0.705264
    171 H77        -5.1780   -0.0940    1.3240 ho        1 MOL      0.366732
    172 H78        -4.3420   -1.0310    2.1680 ho        1 MOL      0.366732
    173 O25        -1.8510   -0.3250    2.6470 oh        1 MOL     -0.705264
    174 H79        -0.9390   -0.0640    2.5400 ho        1 MOL      0.366732
    175 H80        -2.0450   -0.1540    3.5690 ho        1 MOL      0.366732
@<TRIPOS>BOND
     1    1    2 1   
     2    1    4 1   
     3    1    5 1   
     4    1    6 1   
     5    2    3 2   
     6    2    7 1   
     7    7    8 1   
     8    7   15 1   
     9    8    9 1   
    10    8   11 1   
    11    8   16 1   
    12    9   10 2   
    13    9   19 1   
    14   11   12 1   
    15   11   17 1   
    16   11   18 1   
    17   12   13 1   
    18   12   14 1   
    19   19   20 1   
    20   19   24 1   
    21   20   21 1   
    22   20   23 1   
    23   20   25 1   
    24   21   22 2   
    25   21   29 1   
    26   23   26 1   
    27   23   27 1   
    28   23   28 1   
    29   29   30 1   
    30   29   37 1   
    31   30   31 1   
    32   30   33 1   
    33   30   38 1   
    34   31   32 2   
    35   31   41 1   
    36   33   34 1   
    37   33   39 1   
    38   33   40 1   
    39   34   35 1   
    40   34   36 1   
    41   41   42 1   
    42   41   45 1   
    43   42   43 1   
    44   42   46 1   
    45   42   47 1   
    46   43   44 2   
    47   43   48 1   
    48   48   49 1   
    49   48   56 1   
    50   49   50 1   
    51   49   52 1   
    52   49   57 1   
    53   50   51 2   
    54   50   62 1   
    55   52   53 1   
    56   52   58 1   
    57   52   59 1   
    58   53   54 1   
    59   53   55 2   
    60   54   60 1   
    61   54   61 1   
    62   62   63 1   
    63   62   66 1   
    64   63   64 1   
    65   63   67 1   
    66   63   68 1   
    67   64   65 2   
    68   64   69 1   
    69   69   70 1   
    70   69   76 1   
    71   70   71 1   
    72   70   73 1   
    73   70   77 1   
    74   71   72 2   
    75   71   83 1   
    76   73   74 1   
    77   73   75 1   
    78   73   78 1   
    79   74   80 1   
    80   74   81 1   
    81   74   82 1   
    82   75   79 1   
    83   83   84 1   
    84   83   91 1   
    85   84   85 1   
    86   84   87 1   
    87   84   92 1   
    88   85   86 2   
    89   85  102 1   
    90   87   88 1   
    91   87   89 1   
    92   87   93 1   
    93   88   90 1   
    94   88   94 1   
    95   88   95 1   
    96   89   96 1   
    97   89   97 1   
    98   89   98 1   
    99   90   99 1   
   100   90  100 1   
   101   90  101 1   
   102  102  103 1   
   103  102  110 1   
   104  103  104 1   
   105  103  106 1   
   106  103  111 1   
   107  104  105 2   
   108  104  114 1   
   109  106  107 1   
   110  106  112 1   
   111  106  113 1   
   112  107  108 1   
   113  107  109 1   
   114  114  115 1   
   115  114  125 1   
   116  115  116 1   
   117  115  118 1   
   118  115  126 1   
   119  116  117 2   
   120  116  134 1   
   121  118  119 1   
   122  118  127 1   
   123  118  128 1   
   124  119  120 ar  
   125  119  121 ar  
   126  120  122 ar  
   127  120  129 1   
   128  121  123 ar  
   129  121  130 1   
   130  122  124 ar  
   131  122  131 1   
   132  123  124 ar  
   133  123  132 1   
   134  124  133 1   
   135  134  135 1   
   136  134  140 1   
   137  135  136 1   
   138  135  138 1   
   139  135  141 1   
   140  136  137 2   
   141  136  148 1   
   142  138  139 1   
   143  138  142 1   
   144  138  143 1   
   145  139  140 1   
   146  139  144 1   
   147  139  145 1   
   148  140  146 1   
   149  140  147 1   
   150  148  149 1   
   151  148  157 1   
   152  149  150 1   
   153  149  152 1   
   154  149  158 1   
   155  150  151 2   
   156  150  163 1   
   157  152  153 1   
   158  152  159 1   
   159  152  160 1   
   160  153  154 1   
   161  153  161 1   
   162  153  162 1   
   163  154  155 1   
   164  154  156 1   
   165  163  164 1   
   166  163  168 1   
   167  164  165 1   
   168  164  166 1   
   169  164  167 1   
   170  170  171 1   
   171  170  172 1   
   172  173  174 1   
   173  173  175 1   
@<TRIPOS>SUBSTRUCTURE
     1 MOL         1 TEMP              0 ****  ****    0 ROOT
