@<TRIPOS>MOLECULE
MOL
  179   176     1     0     0
SMALL
resp


@<TRIPOS>ATOM
      1 C1          2.7590    1.9810    5.2880 c3        1 MOL     -0.349811
      2 C2          2.0420    2.1190    3.8970 c         1 MOL      0.727300
      3 O1          2.6690    2.1110    2.8750 o         1 MOL     -0.609334
      4 H1          3.6530    2.6050    5.2990 hc        1 MOL      0.091384
      5 H2          2.0830    2.3030    6.0800 hc        1 MOL      0.091384
      6 H3          3.0400    0.9400    5.4520 hc        1 MOL      0.091384
      7 N1          0.6830    2.0960    3.9260 n         1 MOL     -0.567617
      8 C3         -0.1110    2.2310    2.7740 c3        1 MOL      0.196020
      9 C4         -0.1150    3.6990    2.1870 c         1 MOL      0.305241
     10 O2         -0.6280    4.6400    2.7980 o         1 MOL     -0.529534
     11 C5         -1.5830    1.8760    3.1560 c3        1 MOL     -0.200595
     12 C6         -2.3920    1.7630    1.8940 c         1 MOL      0.838353
     13 O3         -1.9120    1.9340    0.7170 o         1 MOL     -0.739866
     14 O4         -3.5990    1.5150    2.0240 o         1 MOL     -0.739866
     15 H4          0.2350    1.9310    4.8140 hn        1 MOL      0.314974
     16 H5          0.2000    1.5660    1.9750 h1        1 MOL     -0.008207
     17 H6         -2.0120    2.5650    3.8750 hc        1 MOL      0.049591
     18 H7         -1.4280    0.8490    3.5110 hc        1 MOL      0.049591
     19 N2          0.5650    3.8200    1.0370 n         1 MOL     -0.015432
     20 C7          0.8540    5.1700    0.3980 c3        1 MOL     -0.210562
     21 C8         -0.2110    5.6230   -0.6740 c         1 MOL      0.564644
     22 O5         -0.0180    6.6290   -1.3570 o         1 MOL     -0.576973
     23 C9          2.2990    5.2070   -0.2350 c3        1 MOL      0.005923
     24 C10         3.4340    5.0020    0.8120 c3        1 MOL     -0.065662
     25 C11         4.8590    5.1060    0.1590 c3        1 MOL     -0.059693
     26 C12         5.1140    6.5280   -0.3880 c3        1 MOL     -0.069310
     27 N3          5.2040    7.5120    0.7010 n4        1 MOL     -0.322749
     28 H8          0.8900    2.9810    0.5760 hn        1 MOL      0.256425
     29 H9          0.8840    5.9550    1.1540 h1        1 MOL      0.079811
     30 H10         2.4430    6.1520   -0.7570 hc        1 MOL      0.040154
     31 H11         2.3560    4.4900   -1.0550 hc        1 MOL      0.040154
     32 H12         3.3200    3.9680    1.1210 hc        1 MOL      0.040333
     33 H13         3.3340    5.5400    1.7570 hc        1 MOL      0.040333
     34 H14         4.9690    4.3380   -0.6020 hc        1 MOL      0.070095
     35 H15         5.5980    4.8980    0.9150 hc        1 MOL      0.070095
     36 H16         4.4010    6.6790   -1.1950 hx        1 MOL      0.107089
     37 H17         6.0660    6.5100   -0.9130 hx        1 MOL      0.107089
     38 H18         5.5350    8.4180    0.4030 hn        1 MOL      0.322183
     39 H19         4.3070    7.6910    1.1250 hn        1 MOL      0.322183
     40 H20         5.7840    7.2140    1.4780 hn        1 MOL      0.322183
     41 N4         -1.2430    4.8600   -0.8180 n         1 MOL     -0.279376
     42 C13        -2.2640    5.2860   -1.7830 c3        1 MOL     -0.057345
     43 C14        -3.6820    5.0070   -1.2700 c         1 MOL      0.472553
     44 O6         -4.5730    5.1530   -2.1270 o         1 MOL     -0.507748
     45 C15        -1.9650    4.7970   -3.2130 c3        1 MOL     -0.141056
     46 C16        -2.0090    3.3440   -3.4090 c         1 MOL      0.919939
     47 O7         -1.5230    2.8990   -4.4760 o         1 MOL     -0.792794
     48 O8         -2.3520    2.6250   -2.4800 o         1 MOL     -0.792794
     49 H21        -1.3810    3.9960   -0.3060 hn        1 MOL      0.062124
     50 H22        -2.2840    6.3680   -1.8820 h1        1 MOL      0.115280
     51 H23        -0.9930    5.1640   -3.5340 hc        1 MOL      0.039818
     52 H24        -2.7740    5.0620   -3.9020 hc        1 MOL      0.039818
     53 N5         -3.8990    4.5320   -0.0390 n         1 MOL     -0.301316
     54 C17        -5.1810    4.4310    0.6240 c3        1 MOL     -0.196476
     55 C18        -6.0840    3.3420    0.0270 c         1 MOL      0.492481
     56 O9         -7.2980    3.4990    0.2070 o         1 MOL     -0.567380
     57 H25        -3.1080    4.4160    0.5690 hn        1 MOL      0.269753
     58 H26        -5.7000    5.3840    0.7130 h1        1 MOL      0.130219
     59 H27        -4.9070    3.9620    1.5720 h1        1 MOL      0.130219
     60 N6         -5.5440    2.2990   -0.5690 n         1 MOL     -0.159522
     61 C19        -6.3240    1.1330   -1.1330 c3        1 MOL     -0.142317
     62 C20        -6.6170   -0.0070   -0.1620 c         1 MOL      0.387541
     63 O10        -7.3140   -0.9840   -0.4970 o         1 MOL     -0.506553
     64 C21        -5.6550    0.7500   -2.4730 c3        1 MOL     -0.104162
     65 C22        -4.4200   -0.1540   -2.3780 c         1 MOL      0.711530
     66 N7         -3.8750   -0.6400   -3.4570 n         1 MOL     -0.951403
     67 O11        -3.8020   -0.2810   -1.3050 o         1 MOL     -0.525944
     68 H28        -4.5560    2.2610   -0.7540 hn        1 MOL      0.146961
     69 H29        -7.3030    1.4890   -1.4540 h1        1 MOL      0.154713
     70 H30        -5.4160    1.5860   -3.1210 hc        1 MOL      0.063548
     71 H31        -6.3750    0.1420   -3.0150 hc        1 MOL      0.063548
     72 H32        -4.2580   -0.4400   -4.3690 hn        1 MOL      0.409072
     73 H33        -3.0930   -1.2840   -3.3800 hn        1 MOL      0.409072
     74 N8         -6.1250    0.1290    1.0670 n         1 MOL     -0.162302
     75 C23        -6.3140   -0.8810    2.0930 c3        1 MOL     -0.391387
     76 C24        -5.3120   -1.9870    2.1270 c         1 MOL      0.803214
     77 O12        -5.5890   -2.8710    2.9080 o         1 MOL     -0.585867
     78 H34        -5.5400    0.9430    1.1970 hn        1 MOL      0.272922
     79 H35        -7.2720   -1.3530    1.9080 h1        1 MOL      0.158485
     80 H36        -6.3410   -0.3640    3.0550 h1        1 MOL      0.158485
     81 N9         -4.2410   -1.9380    1.3350 n         1 MOL     -0.719396
     82 C25        -3.3930   -3.1020    1.0180 c3        1 MOL      0.079986
     83 C26        -1.9850   -2.5470    0.8830 c         1 MOL      0.863239
     84 O13        -1.8030   -1.4480    0.3220 o         1 MOL     -0.787502
     85 C27        -3.9680   -3.7410   -0.3040 c3        1 MOL      0.033034
     86 C28        -5.3020   -4.5670   -0.2100 ca        1 MOL     -0.172858
     87 C29        -5.2440   -5.8630    0.3400 ca        1 MOL     -0.010575
     88 C30        -6.5290   -4.0680   -0.6470 ca        1 MOL     -0.010575
     89 C31        -6.3510   -6.7200    0.3700 ca        1 MOL     -0.292370
     90 C32        -7.6790   -4.9040   -0.6240 ca        1 MOL     -0.292370
     91 C33        -7.5910   -6.2320   -0.1970 ca        1 MOL      0.366538
     92 O14        -8.6300   -7.0930   -0.4010 oh        1 MOL     -0.515619
     93 H37        -4.1600   -1.1800    0.6790 hn        1 MOL      0.421210
     94 H38        -3.5130   -3.9440    1.7090 h1        1 MOL      0.075185
     95 H39        -3.1520   -4.3150   -0.7390 hc        1 MOL      0.008131
     96 H40        -4.0400   -2.9350   -1.0440 hc        1 MOL      0.008131
     97 H41        -4.2680   -6.2050    0.6610 ha        1 MOL      0.090116
     98 H42        -6.5520   -3.0640   -1.0430 ha        1 MOL      0.090116
     99 H43        -6.3010   -7.7170    0.7970 ha        1 MOL      0.152044
    100 H44        -8.6150   -4.5230   -1.0060 ha        1 MOL      0.152044
    101 H45        -9.4110   -6.6710   -0.7660 ho        1 MOL      0.377369
    102 N10        -1.0090   -3.3250    1.4460 n         1 MOL     -0.748299
    103 C34         0.4310   -2.9840    1.5470 c3        1 MOL      0.102045
    104 C35         1.1420   -3.8170    0.4620 c         1 MOL      0.535867
    105 O15         0.8970   -5.0350    0.4010 o         1 MOL     -0.580545
    106 C36         0.9330   -3.1610    3.0070 c3        1 MOL      0.025558
    107 C37         0.3690   -2.1360    4.0280 c3        1 MOL      0.342099
    108 C38         2.4600   -3.1810    3.0930 c3        1 MOL     -0.299460
    109 C39         0.6840   -2.4680    5.4810 c3        1 MOL     -0.238057
    110 H46        -1.3070   -4.1140    1.9920 hn        1 MOL      0.344171
    111 H47         0.5640   -1.9400    1.2470 h1        1 MOL      0.051870
    112 H48         0.5860   -4.1050    3.4190 hc        1 MOL      0.036202
    113 H49        -0.7190   -2.2090    4.0000 hc        1 MOL     -0.079261
    114 H50         0.7640   -1.1460    3.8410 hc        1 MOL     -0.079261
    115 H51         2.7740   -3.4000    4.1120 hc        1 MOL      0.067059
    116 H52         2.8570   -3.9450    2.4160 hc        1 MOL      0.067059
    117 H53         2.9340   -2.2220    2.8890 hc        1 MOL      0.067059
    118 H54         0.6320   -3.5300    5.7350 hc        1 MOL      0.050365
    119 H55         1.6750   -2.0880    5.7030 hc        1 MOL      0.050365
    120 H56        -0.0480   -1.9600    6.0940 hc        1 MOL      0.050365
    121 N11         1.9050   -3.2260   -0.3590 n         1 MOL     -0.215461
    122 C40         2.7680   -3.9270   -1.3750 c3        1 MOL      0.011600
    123 C41         4.2540   -4.0180   -0.9910 c         1 MOL      0.569097
    124 O16         4.6840   -3.3530   -0.0520 o         1 MOL     -0.530386
    125 C42         2.6780   -3.1590   -2.7080 c3        1 MOL     -0.101215
    126 O17         3.2370   -1.8530   -2.6770 oh        1 MOL     -0.560809
    127 H57         1.8850   -2.2150   -0.3480 hn        1 MOL      0.260108
    128 H58         2.4190   -4.9480   -1.5520 h1        1 MOL      0.041522
    129 H59         1.6070   -3.1120   -2.8970 h1        1 MOL      0.094060
    130 H60         3.1550   -3.7370   -3.4910 h1        1 MOL      0.094060
    131 H61         2.5630   -1.2230   -2.4120 ho        1 MOL      0.370204
    132 N12         5.0790   -4.7220   -1.7540 n         1 MOL     -0.541564
    133 C43         6.5740   -4.8680   -1.5370 c3        1 MOL      0.268363
    134 C44         7.3180   -3.5480   -1.3560 c         1 MOL      0.438641
    135 O18         7.8960   -3.2850   -0.2720 o         1 MOL     -0.499996
    136 C45         7.0380   -5.6210   -2.7410 c3        1 MOL     -0.311926
    137 H62         4.6510   -5.3190   -2.4460 hn        1 MOL      0.309929
    138 H63         6.8310   -5.5120   -0.7040 h1        1 MOL      0.050011
    139 H64         6.4190   -5.3860   -3.6120 hc        1 MOL      0.081520
    140 H65         8.0880   -5.3880   -2.9040 hc        1 MOL      0.081520
    141 H66         6.8680   -6.6910   -2.6080 hc        1 MOL      0.081520
    142 N13         7.2690   -2.6930   -2.3750 n         1 MOL     -0.314488
    143 C46         7.9220   -1.4000   -2.3460 c3        1 MOL     -0.028559
    144 C47         7.3710   -0.4710   -1.1970 c         1 MOL      0.342125
    145 O19         8.0930    0.4040   -0.5540 o         1 MOL     -0.512288
    146 C48         7.7650   -0.7590   -3.7880 c3        1 MOL     -0.229748
    147 H67         6.7640   -2.9470   -3.2150 hn        1 MOL      0.270574
    148 H68         8.9890   -1.5280   -2.1750 h1        1 MOL      0.131347
    149 H69         8.1960    0.2320   -3.9350 hc        1 MOL      0.078946
    150 H70         8.1710   -1.3930   -4.5770 hc        1 MOL      0.078946
    151 H71         6.7310   -0.6580   -4.1180 hc        1 MOL      0.078946
    152 N14         6.0940   -0.5730   -0.7620 n         1 MOL     -0.047445
    153 C49         5.5810    0.1590    0.4510 c3        1 MOL     -0.306775
    154 C50         6.1920   -0.2160    1.7990 c         1 MOL      0.582792
    155 O20         6.3640    0.5200    2.7320 o         1 MOL     -0.563052
    156 C51         4.0220    0.0960    0.6010 c3        1 MOL      0.071144
    157 C52         3.3540    0.9430   -0.4500 c3        1 MOL     -0.046062
    158 C53         1.8330    0.7180   -0.6580 c         1 MOL      0.684760
    159 O21         1.0720    1.6640   -0.4840 o         1 MOL     -0.730524
    160 O22         1.3970   -0.3560   -1.1570 o         1 MOL     -0.730524
    161 H72         5.4260   -1.0380   -1.3550 hn        1 MOL      0.172204
    162 H73         5.9190    1.1820    0.2700 h1        1 MOL      0.107485
    163 H74         3.7740    0.5320    1.5690 hc        1 MOL      0.029764
    164 H75         3.7430   -0.9460    0.4690 hc        1 MOL      0.029764
    165 H76         3.8770    0.8430   -1.4010 hc        1 MOL      0.015138
    166 H77         3.4830    1.9850   -0.1650 hc        1 MOL      0.015138
    167 N15         6.5010   -1.4990    1.8300 n         1 MOL     -0.157693
    168 C54         7.2400   -2.0860    2.9190 c3        1 MOL     -0.286410
    169 H78         8.1270   -1.4840    3.1210 h1        1 MOL      0.111316
    170 H79         6.6130   -2.1180    3.8090 h1        1 MOL      0.111316
    171 H80         7.5430   -3.0970    2.6490 h1        1 MOL      0.111316
    172 H81         6.4730   -1.9130    0.9200 hn        1 MOL      0.206056
    173 Ca1        -1.2070    0.5050   -1.3730 Ca        1 MOL      1.770082
    174 O23        -0.0280    0.6160   -3.6740 oh        1 MOL     -0.876792
    175 H82         0.3880   -0.0430   -4.2330 ho        1 MOL      0.427965
    176 H83         0.0090    1.4200   -4.1950 ho        1 MOL      0.427965
    177 O24        -1.5320   -1.8350   -2.6570 oh        1 MOL     -0.876792
    178 H84        -1.8340   -2.7470   -2.6050 ho        1 MOL      0.427965
    179 H85        -1.0490   -1.7890   -3.4780 ho        1 MOL      0.427965
@<TRIPOS>BOND
     1    1    2 1   
     2    1    4 1   
     3    1    5 1   
     4    1    6 1   
     5    2    3 2   
     6    2    7 1   
     7    7    8 1   
     8    7   15 1   
     9    8    9 1   
    10    8   11 1   
    11    8   16 1   
    12    9   10 2   
    13    9   19 1   
    14   11   12 1   
    15   11   17 1   
    16   11   18 1   
    17   12   13 1   
    18   12   14 1   
    19   19   20 1   
    20   19   28 1   
    21   20   21 1   
    22   20   23 1   
    23   20   29 1   
    24   21   22 2   
    25   21   41 1   
    26   23   24 1   
    27   23   30 1   
    28   23   31 1   
    29   24   25 1   
    30   24   32 1   
    31   24   33 1   
    32   25   26 1   
    33   25   34 1   
    34   25   35 1   
    35   26   27 1   
    36   26   36 1   
    37   26   37 1   
    38   27   38 1   
    39   27   39 1   
    40   27   40 1   
    41   41   42 1   
    42   41   49 1   
    43   42   43 1   
    44   42   45 1   
    45   42   50 1   
    46   43   44 2   
    47   43   53 1   
    48   45   46 1   
    49   45   51 1   
    50   45   52 1   
    51   46   47 1   
    52   46   48 1   
    53   53   54 1   
    54   53   57 1   
    55   54   55 1   
    56   54   58 1   
    57   54   59 1   
    58   55   56 2   
    59   55   60 1   
    60   60   61 1   
    61   60   68 1   
    62   61   62 1   
    63   61   64 1   
    64   61   69 1   
    65   62   63 2   
    66   62   74 1   
    67   64   65 1   
    68   64   70 1   
    69   64   71 1   
    70   65   66 1   
    71   65   67 2   
    72   66   72 1   
    73   66   73 1   
    74   74   75 1   
    75   74   78 1   
    76   75   76 1   
    77   75   79 1   
    78   75   80 1   
    79   76   77 2   
    80   76   81 1   
    81   81   82 1   
    82   81   93 1   
    83   82   83 1   
    84   82   85 1   
    85   82   94 1   
    86   83   84 2   
    87   83  102 1   
    88   85   86 1   
    89   85   95 1   
    90   85   96 1   
    91   86   87 ar  
    92   86   88 ar  
    93   87   89 ar  
    94   87   97 1   
    95   88   90 ar  
    96   88   98 1   
    97   89   91 ar  
    98   89   99 1   
    99   90   91 ar  
   100   90  100 1   
   101   91   92 1   
   102   92  101 1   
   103  102  103 1   
   104  102  110 1   
   105  103  104 1   
   106  103  106 1   
   107  103  111 1   
   108  104  105 2   
   109  104  121 1   
   110  106  107 1   
   111  106  108 1   
   112  106  112 1   
   113  107  109 1   
   114  107  113 1   
   115  107  114 1   
   116  108  115 1   
   117  108  116 1   
   118  108  117 1   
   119  109  118 1   
   120  109  119 1   
   121  109  120 1   
   122  121  122 1   
   123  121  127 1   
   124  122  123 1   
   125  122  125 1   
   126  122  128 1   
   127  123  124 2   
   128  123  132 1   
   129  125  126 1   
   130  125  129 1   
   131  125  130 1   
   132  126  131 1   
   133  132  133 1   
   134  132  137 1   
   135  133  134 1   
   136  133  136 1   
   137  133  138 1   
   138  134  135 2   
   139  134  142 1   
   140  136  139 1   
   141  136  140 1   
   142  136  141 1   
   143  142  143 1   
   144  142  147 1   
   145  143  144 1   
   146  143  146 1   
   147  143  148 1   
   148  144  145 2   
   149  144  152 1   
   150  146  149 1   
   151  146  150 1   
   152  146  151 1   
   153  152  153 1   
   154  152  161 1   
   155  153  154 1   
   156  153  156 1   
   157  153  162 1   
   158  154  155 2   
   159  154  167 1   
   160  156  157 1   
   161  156  163 1   
   162  156  164 1   
   163  157  158 1   
   164  157  165 1   
   165  157  166 1   
   166  158  159 1   
   167  158  160 1   
   168  167  168 1   
   169  167  172 1   
   170  168  169 1   
   171  168  170 1   
   172  168  171 1   
   173  174  175 1   
   174  174  176 1   
   175  177  178 1   
   176  177  179 1   
@<TRIPOS>SUBSTRUCTURE
     1 MOL         1 TEMP              0 ****  ****    0 ROOT
