@<TRIPOS>MOLECULE
MOL
  175   173     1     0     0
SMALL
resp


@<TRIPOS>ATOM
      1 C1          0.7230    4.6070    5.2510 c3        1 MOL     -0.439746
      2 C2          0.1020    4.5140    3.7970 c         1 MOL      0.645664
      3 O1          0.8300    4.6740    2.7730 o         1 MOL     -0.547601
      4 H1          1.1140    5.6110    5.4140 hc        1 MOL      0.113721
      5 H2         -0.0490    4.3940    5.9910 hc        1 MOL      0.113721
      6 H3          1.5310    3.8820    5.3490 hc        1 MOL      0.113721
      7 N1         -1.1780    4.2020    3.6430 n         1 MOL     -0.531030
      8 C3         -1.9050    3.8550    2.3630 c3        1 MOL      0.030965
      9 C4         -2.0870    4.9960    1.3660 c         1 MOL      0.611392
     10 O2         -2.0700    6.1990    1.7590 o         1 MOL     -0.580724
     11 C5         -3.2940    3.2930    2.7730 c3        1 MOL     -0.323398
     12 C6         -4.0130    2.5800    1.6560 c         1 MOL      0.728594
     13 O3         -5.2620    2.3670    1.7220 o         1 MOL     -0.683188
     14 O4         -3.4320    2.2290    0.5790 o         1 MOL     -0.683188
     15 H4         -1.6250    3.9210    4.5100 hn        1 MOL      0.302554
     16 H5         -1.2910    3.0730    1.9260 h1        1 MOL      0.124435
     17 H6         -3.8590    4.1840    3.0470 hc        1 MOL      0.085128
     18 H7         -3.2030    2.7150    3.6890 hc        1 MOL      0.085128
     19 N2         -2.2280    4.6660    0.1010 n         1 MOL     -0.510195
     20 C7         -2.5550    5.6210   -0.9970 c3        1 MOL      0.203313
     21 C8         -3.6520    5.1320   -1.9610 c         1 MOL      0.541538
     22 O5         -3.9660    5.8920   -2.8610 o         1 MOL     -0.577813
     23 C9         -1.2290    5.8380   -1.7680 c3        1 MOL     -0.234233
     24 H8         -2.2300    3.6700   -0.0750 hn        1 MOL      0.304587
     25 H9         -2.9340    6.5240   -0.5260 h1        1 MOL      0.030526
     26 H10        -0.8670    4.9230   -2.2370 hc        1 MOL      0.065009
     27 H11        -1.2980    6.6260   -2.5190 hc        1 MOL      0.065009
     28 H12        -0.4400    6.2130   -1.1280 hc        1 MOL      0.065009
     29 N3         -4.2450    3.9710   -1.7140 n         1 MOL     -0.495197
     30 C10        -5.0550    3.3090   -2.7390 c3        1 MOL      0.150340
     31 C11        -6.2830    2.4510   -2.2690 c         1 MOL      0.275553
     32 O6         -7.2500    2.1830   -2.9970 o         1 MOL     -0.547014
     33 C12        -4.1860    2.3690   -3.5960 c3        1 MOL     -0.028770
     34 C13        -3.4550    1.2020   -2.8910 c         1 MOL      0.664746
     35 O7         -3.9550    0.5300   -1.9520 o         1 MOL     -0.704302
     36 O8         -2.2600    0.9870   -3.1320 o         1 MOL     -0.704302
     37 H13        -4.0720    3.5010   -0.8340 hn        1 MOL      0.282684
     38 H14        -5.4540    3.9950   -3.4860 h1        1 MOL      0.070171
     39 H15        -3.5350    2.9550   -4.2430 hc        1 MOL      0.008575
     40 H16        -4.7980    1.8850   -4.3540 hc        1 MOL      0.008575
     41 N4         -6.3190    1.9630   -1.0110 n         1 MOL     -0.038522
     42 C14        -7.3900    1.1850   -0.4530 c3        1 MOL     -0.302818
     43 C15        -7.3990   -0.3590   -0.7900 c         1 MOL      0.505013
     44 O9         -8.3720   -1.0130   -0.4120 o         1 MOL     -0.613573
     45 H17        -5.6250    2.2190   -0.3130 hn        1 MOL      0.136305
     46 H18        -8.3260    1.6650   -0.7520 h1        1 MOL      0.134804
     47 H19        -7.4510    1.3850    0.6140 h1        1 MOL      0.134804
     48 N5         -6.3690   -0.8990   -1.4420 n         1 MOL     -0.213205
     49 C16        -6.3060   -2.2660   -1.9740 c3        1 MOL     -0.062052
     50 C17        -6.3000   -3.3950   -0.9410 c         1 MOL      0.444436
     51 O10        -6.2400   -4.5480   -1.2950 o         1 MOL     -0.540837
     52 C18        -5.0960   -2.3850   -2.8910 c3        1 MOL     -0.052891
     53 C19        -3.7400   -2.4230   -2.2600 c         1 MOL      0.550717
     54 N6         -2.7350   -2.6700   -2.9850 n         1 MOL     -0.581018
     55 O11        -3.5100   -2.2310   -1.0990 o         1 MOL     -0.469973
     56 H20        -5.6220   -0.2780   -1.7000 hn        1 MOL      0.226772
     57 H21        -7.2290   -2.3900   -2.5400 h1        1 MOL      0.101085
     58 H22        -5.1660   -1.5170   -3.5420 hc        1 MOL      0.025024
     59 H23        -5.2480   -3.2570   -3.5150 hc        1 MOL      0.025024
     60 H24        -2.7700   -3.0370   -3.9310 hn        1 MOL      0.314415
     61 H25        -1.8850   -2.6710   -2.4510 hn        1 MOL      0.314415
     62 N7         -6.3270   -3.0640    0.3760 n         1 MOL     -0.095524
     63 C20        -6.4250   -4.0030    1.4790 c3        1 MOL     -0.431006
     64 C21        -5.0200   -4.4020    1.9950 c         1 MOL      0.532958
     65 O12        -4.9910   -5.2440    2.8790 o         1 MOL     -0.567128
     66 H26        -6.4130   -2.0810    0.5710 hn        1 MOL      0.202097
     67 H27        -6.8600   -4.9500    1.1520 h1        1 MOL      0.182615
     68 H28        -6.9400   -3.5230    2.3010 h1        1 MOL      0.182615
     69 N8         -3.8470   -3.9200    1.5280 n         1 MOL     -0.160836
     70 C22        -2.5080   -4.4290    1.7020 c3        1 MOL     -0.321191
     71 C23        -1.4210   -3.3280    1.6780 c         1 MOL      0.516297
     72 O13        -1.5930   -2.3130    1.0140 o         1 MOL     -0.642468
     73 C24        -2.1350   -5.4550    0.5250 c3        1 MOL      0.661088
     74 C25        -3.1810   -6.6130    0.3830 c3        1 MOL     -0.600920
     75 O14        -2.0470   -4.8670   -0.7170 oh        1 MOL     -0.616607
     76 H29        -3.9690   -3.2660    0.7730 hn        1 MOL      0.123561
     77 H30        -2.4560   -4.8740    2.6900 h1        1 MOL      0.103045
     78 H31        -1.1450   -5.8210    0.8130 h1        1 MOL     -0.082840
     79 H32        -2.5180   -4.0290   -0.6980 ho        1 MOL      0.329597
     80 H33        -4.1030   -6.1980   -0.0300 hc        1 MOL      0.145920
     81 H34        -2.8150   -7.2290   -0.4400 hc        1 MOL      0.145920
     82 H35        -3.2200   -7.1950    1.3170 hc        1 MOL      0.145920
     83 N9         -0.2750   -3.6090    2.2920 n         1 MOL     -0.282039
     84 C26         0.9590   -2.8480    2.1890 c3        1 MOL      0.008862
     85 C27         1.6120   -3.1500    0.8790 c         1 MOL      0.550316
     86 O15         1.9760   -4.2980    0.5750 o         1 MOL     -0.591202
     87 C28         1.8770   -3.1760    3.3300 c3        1 MOL     -0.032310
     88 C29         1.3200   -2.7090    4.7160 c3        1 MOL     -0.198161
     89 C30         3.2820   -2.6910    3.1050 c3        1 MOL      0.045271
     90 C31         1.0810   -1.1980    4.7980 c3        1 MOL     -0.148830
     91 H36        -0.1700   -4.4900    2.7710 hn        1 MOL      0.241286
     92 H37         0.6820   -1.7960    2.2420 h1        1 MOL      0.197325
     93 H38         1.9410   -4.2600    3.4310 hc        1 MOL      0.016863
     94 H39         1.9930   -2.9390    5.5420 hc        1 MOL      0.066759
     95 H40         0.3770   -3.2540    4.8300 hc        1 MOL      0.066759
     96 H41         3.9200   -2.7420    3.9860 hc        1 MOL     -0.013668
     97 H42         3.8900   -3.2440    2.3730 hc        1 MOL     -0.013668
     98 H43         3.3340   -1.6530    2.7840 hc        1 MOL     -0.013668
     99 H44         1.8910   -0.5900    4.4040 hc        1 MOL      0.036680
    100 H45         0.1530   -0.8860    4.3250 hc        1 MOL      0.036680
    101 H46         1.0880   -0.9400    5.8560 hc        1 MOL      0.036680
    102 N10         1.9280   -2.0710    0.1490 n         1 MOL     -0.247601
    103 C32         2.6900   -2.0810   -1.0650 c3        1 MOL      0.022896
    104 C33         4.0080   -1.4240   -0.9480 c         1 MOL      0.584451
    105 O16         4.1940   -0.5650   -0.1160 o         1 MOL     -0.366640
    106 C34         1.8860   -1.2620   -2.1200 c3        1 MOL     -0.353510
    107 C35         0.4270   -1.7280   -2.3710 c         1 MOL      0.755854
    108 O17        -0.5530   -1.3090   -1.6860 o         1 MOL     -0.675767
    109 O18         0.2620   -2.4270   -3.4350 o         1 MOL     -0.675767
    110 H47         1.6540   -1.1700    0.5220 hn        1 MOL      0.077283
    111 H48         2.7520   -3.0550   -1.5400 h1        1 MOL      0.096779
    112 H49         2.4430   -1.5450   -3.0100 hc        1 MOL      0.090460
    113 H50         1.8200   -0.1870   -1.9560 hc        1 MOL      0.090460
    114 N11         5.0200   -1.7450   -1.7950 n         1 MOL     -0.968119
    115 C36         6.4010   -1.4740   -1.4530 c3        1 MOL      0.736003
    116 C37         6.7700   -0.0250   -1.1030 c         1 MOL      0.143889
    117 O19         7.3330    0.0180    0.0310 o         1 MOL     -0.464125
    118 C38         7.4070   -1.9940   -2.4650 c3        1 MOL     -0.458565
    119 C39         8.9270   -1.9560   -2.0920 ca        1 MOL      0.200932
    120 C40         9.3940   -2.2910   -0.8540 ca        1 MOL     -0.184319
    121 C41         9.8360   -1.5460   -3.1200 ca        1 MOL     -0.184319
    122 C42        10.7740   -2.1820   -0.5600 ca        1 MOL     -0.092082
    123 C43        11.1940   -1.4800   -2.8780 ca        1 MOL     -0.092082
    124 C44        11.6490   -1.7740   -1.5720 ca        1 MOL     -0.156455
    125 H51         4.7460   -2.2810   -2.6060 hn        1 MOL      0.416341
    126 H52         6.5120   -2.0080   -0.5060 h1        1 MOL      0.023203
    127 H53         7.2170   -1.5780   -3.4480 hc        1 MOL      0.103100
    128 H54         7.3010   -3.0640   -2.6120 hc        1 MOL      0.103100
    129 H55         8.6530   -2.5280   -0.1090 ha        1 MOL      0.104092
    130 H56         9.4300   -1.3120   -4.1000 ha        1 MOL      0.104092
    131 H57        11.1390   -2.4650    0.4080 ha        1 MOL      0.112475
    132 H58        11.8780   -1.1990   -3.6640 ha        1 MOL      0.112475
    133 H59        12.7010   -1.5920   -1.4260 ha        1 MOL      0.104595
    134 N12         6.2180    1.0610   -1.7730 n         1 MOL     -0.004030
    135 C45         6.4450    2.4510   -1.4190 c3        1 MOL     -0.029581
    136 C46         5.8860    2.8670   -0.0470 c         1 MOL      0.302409
    137 O20         6.4880    3.6900    0.6010 o         1 MOL     -0.485825
    138 C47         5.7550    3.3130   -2.5230 c3        1 MOL      0.046173
    139 C48         5.5050    2.2910   -3.6760 c3        1 MOL     -0.096022
    140 C49         5.4800    0.9670   -2.9680 c3        1 MOL      0.004984
    141 H60         7.5180    2.6530   -1.5170 h1        1 MOL      0.072866
    142 H61         4.7490    3.6420   -2.2760 hc        1 MOL      0.013915
    143 H62         6.3770    4.1000   -2.9580 hc        1 MOL      0.013915
    144 H63         4.5310    2.4240   -4.1440 hc        1 MOL      0.036663
    145 H64         6.3030    2.2340   -4.4180 hc        1 MOL      0.036663
    146 H65         4.4510    0.7540   -2.6710 h1        1 MOL      0.039325
    147 H66         5.8540    0.1770   -3.6240 h1        1 MOL      0.039325
    148 N13         4.7620    2.2330    0.2710 n         1 MOL     -0.045251
    149 C50         4.1790    2.3040    1.5310 c3        1 MOL     -0.209655
    150 C51         4.9920    1.5810    2.6280 c         1 MOL      0.521550
    151 O21         5.1310    2.1410    3.6950 o         1 MOL     -0.574602
    152 C52         2.7360    1.8430    1.5970 c3        1 MOL      0.046292
    153 C53         1.8210    2.1030    0.3510 c3        1 MOL     -0.189438
    154 C54         0.4310    1.4500    0.4910 c         1 MOL      0.655467
    155 O22         0.2850    0.4260    1.2450 o         1 MOL     -0.709803
    156 O23        -0.5090    1.8260   -0.2490 o         1 MOL     -0.709803
    157 H67         4.5960    1.4050   -0.2750 hn        1 MOL      0.109824
    158 H68         4.2050    3.3740    1.7370 h1        1 MOL      0.120120
    159 H69         2.2210    2.1370    2.5020 hc        1 MOL      0.031203
    160 H70         2.8140    0.7510    1.6380 hc        1 MOL      0.031203
    161 H71         2.3210    1.7430   -0.5540 hc        1 MOL      0.084124
    162 H72         1.6150    3.1590    0.1880 hc        1 MOL      0.084124
    163 N14         5.5130    0.3640    2.5130 n         1 MOL     -0.060930
    164 C55         6.6040   -0.1640    3.3960 c3        1 MOL     -0.335152
    165 H73         7.1960    0.6680    3.7770 h1        1 MOL      0.117095
    166 H74         6.1630   -0.7080    4.2320 h1        1 MOL      0.117095
    167 H75         7.2450   -0.8330    2.8220 h1        1 MOL      0.117095
    168 H76         5.4020   -0.1650    1.6680 hn        1 MOL      0.139063
    169 Ca1        -2.1920   -0.0360   -0.2380 Ca        1 MOL      1.752462
    170 O24        -1.8490    0.4060    2.8350 oh        1 MOL     -0.737897
    171 H77        -0.9990    0.4610    2.4100 ho        1 MOL      0.357217
    172 H78        -1.6640    0.5890    3.7620 ho        1 MOL      0.357217
    173 O25        -4.4720   -0.5260    1.1720 oh        1 MOL     -0.737897
    174 H79        -5.0410    0.2360    1.3090 ho        1 MOL      0.357217
    175 H80        -4.4640   -0.9720    2.0200 ho        1 MOL      0.357217
@<TRIPOS>BOND
     1    1    2 1   
     2    1    4 1   
     3    1    5 1   
     4    1    6 1   
     5    2    3 2   
     6    2    7 1   
     7    7    8 1   
     8    7   15 1   
     9    8    9 1   
    10    8   11 1   
    11    8   16 1   
    12    9   10 2   
    13    9   19 1   
    14   11   12 1   
    15   11   17 1   
    16   11   18 1   
    17   12   13 1   
    18   12   14 1   
    19   19   20 1   
    20   19   24 1   
    21   20   21 1   
    22   20   23 1   
    23   20   25 1   
    24   21   22 2   
    25   21   29 1   
    26   23   26 1   
    27   23   27 1   
    28   23   28 1   
    29   29   30 1   
    30   29   37 1   
    31   30   31 1   
    32   30   33 1   
    33   30   38 1   
    34   31   32 2   
    35   31   41 1   
    36   33   34 1   
    37   33   39 1   
    38   33   40 1   
    39   34   35 1   
    40   34   36 1   
    41   41   42 1   
    42   41   45 1   
    43   42   43 1   
    44   42   46 1   
    45   42   47 1   
    46   43   44 2   
    47   43   48 1   
    48   48   49 1   
    49   48   56 1   
    50   49   50 1   
    51   49   52 1   
    52   49   57 1   
    53   50   51 2   
    54   50   62 1   
    55   52   53 1   
    56   52   58 1   
    57   52   59 1   
    58   53   54 1   
    59   53   55 2   
    60   54   60 1   
    61   54   61 1   
    62   62   63 1   
    63   62   66 1   
    64   63   64 1   
    65   63   67 1   
    66   63   68 1   
    67   64   65 2   
    68   64   69 1   
    69   69   70 1   
    70   69   76 1   
    71   70   71 1   
    72   70   73 1   
    73   70   77 1   
    74   71   72 2   
    75   71   83 1   
    76   73   74 1   
    77   73   75 1   
    78   73   78 1   
    79   74   80 1   
    80   74   81 1   
    81   74   82 1   
    82   75   79 1   
    83   83   84 1   
    84   83   91 1   
    85   84   85 1   
    86   84   87 1   
    87   84   92 1   
    88   85   86 2   
    89   85  102 1   
    90   87   88 1   
    91   87   89 1   
    92   87   93 1   
    93   88   90 1   
    94   88   94 1   
    95   88   95 1   
    96   89   96 1   
    97   89   97 1   
    98   89   98 1   
    99   90   99 1   
   100   90  100 1   
   101   90  101 1   
   102  102  103 1   
   103  102  110 1   
   104  103  104 1   
   105  103  106 1   
   106  103  111 1   
   107  104  105 2   
   108  104  114 1   
   109  106  107 1   
   110  106  112 1   
   111  106  113 1   
   112  107  108 1   
   113  107  109 1   
   114  114  115 1   
   115  114  125 1   
   116  115  116 1   
   117  115  118 1   
   118  115  126 1   
   119  116  117 2   
   120  116  134 1   
   121  118  119 1   
   122  118  127 1   
   123  118  128 1   
   124  119  120 ar  
   125  119  121 ar  
   126  120  122 ar  
   127  120  129 1   
   128  121  123 ar  
   129  121  130 1   
   130  122  124 ar  
   131  122  131 1   
   132  123  124 ar  
   133  123  132 1   
   134  124  133 1   
   135  134  135 1   
   136  134  140 1   
   137  135  136 1   
   138  135  138 1   
   139  135  141 1   
   140  136  137 2   
   141  136  148 1   
   142  138  139 1   
   143  138  142 1   
   144  138  143 1   
   145  139  140 1   
   146  139  144 1   
   147  139  145 1   
   148  140  146 1   
   149  140  147 1   
   150  148  149 1   
   151  148  157 1   
   152  149  150 1   
   153  149  152 1   
   154  149  158 1   
   155  150  151 2   
   156  150  163 1   
   157  152  153 1   
   158  152  159 1   
   159  152  160 1   
   160  153  154 1   
   161  153  161 1   
   162  153  162 1   
   163  154  155 1   
   164  154  156 1   
   165  163  164 1   
   166  163  168 1   
   167  164  165 1   
   168  164  166 1   
   169  164  167 1   
   170  170  171 1   
   171  170  172 1   
   172  173  174 1   
   173  173  175 1   
@<TRIPOS>SUBSTRUCTURE
     1 MOL         1 TEMP              0 ****  ****    0 ROOT
