@<TRIPOS>MOLECULE
MOL
  189   185     1     0     0
SMALL
resp


@<TRIPOS>ATOM
      1 C1         -0.5240    2.6180   -5.6950 c3        1 MOL     -0.399797
      2 C2          0.0270    2.6770   -4.2160 c         1 MOL      0.682472
      3 O1         -0.5790    3.2200   -3.3690 o         1 MOL     -0.551728
      4 H1         -1.6110    2.5330   -5.6740 hc        1 MOL      0.099388
      5 H2         -0.2420    3.5270   -6.2250 hc        1 MOL      0.099388
      6 H3         -0.1020    1.7530   -6.2060 hc        1 MOL      0.099388
      7 N1          1.1370    1.9110   -3.9640 n         1 MOL     -0.481333
      8 C3          1.8800    1.8960   -2.6810 c3        1 MOL     -0.137801
      9 C4          2.3520    3.3280   -2.0830 c         1 MOL      0.639612
     10 O2          3.0060    4.0330   -2.8430 o         1 MOL     -0.542792
     11 C5          3.0870    1.0020   -2.8730 c3        1 MOL     -0.066482
     12 C6          3.7560    0.6450   -1.6120 c         1 MOL      0.810825
     13 O3          3.1560    0.7750   -0.5050 o         1 MOL     -0.756275
     14 O4          4.8890    0.2080   -1.6690 o         1 MOL     -0.756275
     15 H4          1.4990    1.4340   -4.7720 hn        1 MOL      0.293064
     16 H5          1.1660    1.4110   -2.0130 h1        1 MOL      0.071956
     17 H6          3.7330    1.3860   -3.6670 hc        1 MOL      0.034953
     18 H7          2.8130    0.0500   -3.3130 hc        1 MOL      0.034953
     19 N2          1.9480    3.6350   -0.8020 n         1 MOL     -0.572398
     20 C7          2.2140    4.9490   -0.1580 c3        1 MOL      0.133435
     21 C8          3.2490    4.8700    0.9890 c         1 MOL      0.635549
     22 O5          3.5270    5.9570    1.5100 o         1 MOL     -0.600157
     23 C9          0.8660    5.5500    0.3650 c3        1 MOL     -0.062700
     24 C10         0.4390    6.5450   -0.7630 c3        1 MOL      0.101262
     25 C11        -1.0270    6.6580   -0.7960 c3        1 MOL     -0.107191
     26 C12        -1.3370    7.6230   -1.8950 c3        1 MOL      0.232805
     27 N3         -2.6270    7.4380   -2.4620 n4        1 MOL     -0.350213
     28 H8          1.5690    2.9220   -0.1940 hn        1 MOL      0.342809
     29 H9          2.6130    5.6840   -0.8590 h1        1 MOL     -0.002187
     30 H10         0.9980    5.9980    1.3530 hc        1 MOL      0.035147
     31 H11         0.1550    4.7270    0.4850 hc        1 MOL      0.035147
     32 H12         0.7320    6.0980   -1.7160 hc        1 MOL      0.024267
     33 H13         0.9560    7.4810   -0.5350 hc        1 MOL      0.024267
     34 H14        -1.2470    7.0710    0.1910 hc        1 MOL      0.022503
     35 H15        -1.4830    5.6970   -0.9970 hc        1 MOL      0.022503
     36 H16        -0.4580    7.6310   -2.5360 hx        1 MOL      0.003117
     37 H17        -1.3370    8.6090   -1.4250 hx        1 MOL      0.003117
     38 H18        -3.3470    7.7420   -1.8340 hn        1 MOL      0.322120
     39 H19        -2.7230    8.0060   -3.2960 hn        1 MOL      0.322120
     40 H20        -2.7460    6.4470   -2.6150 hn        1 MOL      0.322120
     41 N4          3.8530    3.7210    1.3950 n         1 MOL     -0.535300
     42 C13         4.7880    3.5550    2.5010 c3        1 MOL      0.062197
     43 C14         5.8380    2.5850    2.1200 c         1 MOL      0.428756
     44 O6          6.6760    2.1110    2.9620 o         1 MOL     -0.537388
     45 C15         4.0430    3.2360    3.8200 c3        1 MOL     -0.224598
     46 C16         3.2040    1.9960    3.7900 c         1 MOL      0.801668
     47 O7          3.1260    1.2770    2.7420 o         1 MOL     -0.697378
     48 O8          2.5420    1.7450    4.8150 o         1 MOL     -0.697378
     49 H21         3.5190    2.8140    1.1050 hn        1 MOL      0.257771
     50 H22         5.3000    4.4990    2.6770 h1        1 MOL      0.104622
     51 H23         3.4850    4.0870    4.2150 hc        1 MOL      0.065761
     52 H24         4.8480    3.1100    4.5530 hc        1 MOL      0.065761
     53 N5          6.0410    2.3990    0.8560 n         1 MOL     -0.234137
     54 C17         7.3110    1.8990    0.2230 c3        1 MOL     -0.522177
     55 C18         7.6700    0.4400    0.3080 c         1 MOL      0.656920
     56 O9          8.7620    0.0910   -0.1300 o         1 MOL     -0.619341
     57 H25         5.4240    2.7850    0.1620 hn        1 MOL      0.263434
     58 H26         8.1040    2.4380    0.7410 h1        1 MOL      0.208285
     59 H27         7.1950    2.0970   -0.8440 h1        1 MOL      0.208285
     60 N6          6.7950   -0.3660    0.8390 n         1 MOL     -0.180171
     61 C19         7.1020   -1.7380    1.3560 c3        1 MOL     -0.205662
     62 C20         7.0270   -2.7930    0.2870 c         1 MOL      0.463420
     63 O10         7.1950   -4.0130    0.5590 o         1 MOL     -0.547328
     64 C21         6.2010   -2.0530    2.5010 c3        1 MOL      0.006246
     65 C22         4.6970   -1.8220    2.2770 c         1 MOL      0.632435
     66 O11         3.9120   -1.5370    3.2120 o         1 MOL     -0.686275
     67 O12         4.2520   -1.9500    1.1500 o         1 MOL     -0.686275
     68 H28         5.8900    0.0470    1.0110 hn        1 MOL      0.217686
     69 H29         8.1190   -1.7990    1.7350 h1        1 MOL      0.144824
     70 H30         6.5600   -1.4560    3.3430 hc        1 MOL      0.031737
     71 H31         6.3720   -3.0580    2.8690 hc        1 MOL      0.031737
     72 N7          6.7600   -2.3820   -0.9260 n         1 MOL     -0.271493
     73 C23         6.5640   -3.2290   -2.0180 c3        1 MOL      0.032032
     74 C24         5.3590   -4.2280   -1.8850 c         1 MOL      0.468489
     75 O13         5.3480   -5.2810   -2.4180 o         1 MOL     -0.526330
     76 H32         6.6740   -1.3780   -0.9430 hn        1 MOL      0.289845
     77 H33         7.4490   -3.7210   -2.4080 h1        1 MOL      0.033389
     78 H34         6.2210   -2.5490   -2.8060 h1        1 MOL      0.033389
     79 N8          4.3110   -3.8010   -1.1330 n         1 MOL     -0.212460
     80 C25         2.9110   -4.4300   -1.0930 c3        1 MOL     -0.228803
     81 C26         1.7540   -3.4230   -1.1480 c         1 MOL      0.773790
     82 O14         1.9680   -2.2960   -0.7150 o         1 MOL     -0.684181
     83 C27         2.7380   -5.3210    0.1870 c3        1 MOL      0.392984
     84 C28         3.6890   -6.5570    0.2060 c3        1 MOL     -0.448253
     85 O15         3.0510   -4.5540    1.3430 oh        1 MOL     -0.574495
     86 H35         4.3450   -2.8080   -0.9590 hn        1 MOL      0.235704
     87 H36         2.7200   -5.0130   -2.0010 h1        1 MOL      0.089568
     88 H37         1.7350   -5.7170    0.2810 h1        1 MOL      0.007916
     89 H38         3.6030   -3.8090    1.0920 ho        1 MOL      0.363125
     90 H39         3.6430   -7.0740    1.1700 hc        1 MOL      0.118493
     91 H40         3.3360   -7.2160   -0.5840 hc        1 MOL      0.118493
     92 H41         4.7450   -6.3900    0.0070 hc        1 MOL      0.118493
     93 N9          0.5640   -3.8250   -1.5520 n         1 MOL     -0.586882
     94 C29        -0.5510   -2.9260   -1.6950 c3        1 MOL      0.123891
     95 C30        -1.7770   -3.3730   -0.9240 c         1 MOL      0.400017
     96 O16        -2.2260   -4.4790   -1.1230 o         1 MOL     -0.546621
     97 C31        -0.9980   -2.7210   -3.1900 c3        1 MOL      0.273453
     98 C32         0.0430   -2.1440   -4.1470 c3        1 MOL     -0.057519
     99 C33        -2.2040   -1.8060   -3.3130 c3        1 MOL     -0.120368
    100 C34        -0.1880   -2.4270   -5.6530 c3        1 MOL     -0.245598
    101 H42         0.4620   -4.7780   -1.8600 hn        1 MOL      0.290375
    102 H43        -0.2750   -1.9280   -1.3400 h1        1 MOL      0.042275
    103 H44        -1.2860   -3.6710   -3.6310 hc        1 MOL     -0.032589
    104 H45         0.9760   -2.5340   -3.7340 hc        1 MOL      0.012307
    105 H46         0.0770   -1.0720   -3.9750 hc        1 MOL      0.012307
    106 H47        -2.1480   -0.8250   -2.8420 hc        1 MOL     -0.001112
    107 H48        -2.4050   -1.6680   -4.3710 hc        1 MOL     -0.001112
    108 H49        -3.0700   -2.3680   -2.9440 hc        1 MOL     -0.001112
    109 H50         0.6060   -2.0500   -6.2800 hc        1 MOL      0.067216
    110 H51        -0.3300   -3.4990   -5.8110 hc        1 MOL      0.067216
    111 H52        -1.0770   -1.9380   -6.0690 hc        1 MOL      0.067216
    112 N10        -2.4070   -2.5110   -0.1260 n         1 MOL     -0.054408
    113 C35        -3.6330   -2.8310    0.5930 c3        1 MOL      0.123954
    114 C36        -4.8910   -2.5790   -0.2470 c         1 MOL      0.327001
    115 O17        -4.7920   -2.0010   -1.3020 o         1 MOL     -0.335782
    116 C37        -3.7830   -2.1940    1.9900 c3        1 MOL     -0.022758
    117 C38        -2.4920   -2.4490    2.8770 c3        1 MOL     -0.321803
    118 O18        -3.9450   -0.8130    1.9530 oh        1 MOL     -0.286024
    119 H53        -1.9770   -1.6120    0.0460 hn        1 MOL      0.044052
    120 H54        -3.6520   -3.9200    0.6950 h1        1 MOL      0.041610
    121 H55        -4.5910   -2.6610    2.5550 h1        1 MOL      0.045846
    122 H56        -3.7730   -0.3950    2.7890 ho        1 MOL      0.350323
    123 H57        -1.7470   -1.7480    2.4970 hc        1 MOL      0.099511
    124 H58        -2.7240   -2.1560    3.8930 hc        1 MOL      0.099511
    125 H59        -2.1570   -3.4670    2.6710 hc        1 MOL      0.099511
    126 N11        -6.0670   -2.9860    0.2550 n         1 MOL     -0.301983
    127 C39        -7.3590   -2.6890   -0.3230 c3        1 MOL     -0.054312
    128 C40        -7.6260   -1.1900   -0.2700 c         1 MOL      0.405833
    129 O19        -8.2420   -0.6530   -1.1580 o         1 MOL     -0.476022
    130 C41        -8.5090   -3.4280    0.3210 c3        1 MOL      0.180410
    131 C42        -8.6260   -4.9180   -0.0580 c3        1 MOL     -0.290617
    132 O20        -8.3580   -3.4070    1.7560 oh        1 MOL     -0.633047
    133 H60        -6.0760   -3.3560    1.1950 hn        1 MOL      0.262119
    134 H61        -7.3640   -3.0230   -1.3600 h1        1 MOL      0.135170
    135 H62        -9.4210   -2.9140    0.0240 h1        1 MOL      0.071560
    136 H63        -9.1350   -3.8800    2.0740 ho        1 MOL      0.413494
    137 H64        -9.0730   -5.0260   -1.0540 hc        1 MOL      0.092949
    138 H65        -7.5960   -5.2820   -0.0150 hc        1 MOL      0.092949
    139 H66        -9.1960   -5.5200    0.6490 hc        1 MOL      0.092949
    140 N12        -7.2220   -0.4780    0.8060 n         1 MOL     -0.263433
    141 C43        -7.2140    0.9690    0.9470 c3        1 MOL     -0.009644
    142 C44        -6.2780    1.7170   -0.0120 c         1 MOL      0.427056
    143 O21        -6.6800    2.5370   -0.7690 o         1 MOL     -0.494025
    144 C45        -6.7310    1.3940    2.3490 c3        1 MOL      0.049699
    145 C46        -7.8620    1.3790    3.4070 c3        1 MOL      0.087698
    146 C47        -7.3170    1.7660    4.7730 c3        1 MOL     -0.111943
    147 C48        -6.2080    0.7490    5.1470 c3        1 MOL      0.209253
    148 N13        -5.8490    0.9930    6.5510 n4        1 MOL     -0.406894
    149 H67        -6.8040   -1.0790    1.4960 hn        1 MOL      0.204042
    150 H68        -8.1860    1.4530    0.8370 h1        1 MOL      0.089656
    151 H69        -6.3720    2.4240    2.2910 hc        1 MOL     -0.004427
    152 H70        -5.9260    0.7510    2.6960 hc        1 MOL     -0.004427
    153 H71        -8.3030    0.3820    3.4590 hc        1 MOL     -0.004329
    154 H72        -8.6610    1.9870    2.9880 hc        1 MOL     -0.004329
    155 H73        -8.0960    1.8160    5.5280 hc        1 MOL      0.049326
    156 H74        -6.8640    2.7590    4.7800 hc        1 MOL      0.049326
    157 H75        -5.3070    0.8390    4.5280 hx        1 MOL      0.006782
    158 H76        -6.5290   -0.2820    4.9630 hx        1 MOL      0.006782
    159 H77        -5.4160    1.9030    6.6580 hn        1 MOL      0.307647
    160 H78        -6.5960    0.8200    7.2060 hn        1 MOL      0.307647
    161 H79        -5.1510    0.3500    6.9120 hn        1 MOL      0.307647
    162 N14        -4.9970    1.3580   -0.0320 n         1 MOL     -0.214502
    163 C49        -4.0510    1.9050   -1.0230 c3        1 MOL     -0.143974
    164 C50        -4.5500    1.7100   -2.5290 c         1 MOL      0.387343
    165 O22        -4.4680    2.6770   -3.3030 o         1 MOL     -0.541424
    166 C51        -2.6060    1.3360   -0.8620 c3        1 MOL      0.038857
    167 C52        -1.9260    1.6350    0.5000 c3        1 MOL     -0.006729
    168 C53        -0.5570    0.9520    0.5020 c         1 MOL      0.581785
    169 O23         0.4540    1.6200    0.8640 o         1 MOL     -0.650490
    170 O24        -0.5040   -0.3010    0.3790 o         1 MOL     -0.650490
    171 H80        -4.8290    0.5540    0.5550 hn        1 MOL      0.014741
    172 H81        -4.0360    2.9880   -0.8700 h1        1 MOL      0.098949
    173 H82        -2.0690    1.7420   -1.7250 hc        1 MOL      0.065725
    174 H83        -2.6770    0.2760   -1.1350 hc        1 MOL      0.065725
    175 H84        -2.4920    1.1120    1.2690 hc        1 MOL     -0.026068
    176 H85        -1.8100    2.6930    0.7170 hc        1 MOL     -0.026068
    177 N15        -5.2000    0.5730   -2.7480 n         1 MOL      0.047831
    178 C54        -5.8050    0.3090   -4.1050 c3        1 MOL     -0.211633
    179 H86        -6.8930    0.3310   -4.0280 h1        1 MOL      0.089378
    180 H87        -5.4750    1.0740   -4.8070 h1        1 MOL      0.089378
    181 H88        -5.4880   -0.6720   -4.4600 h1        1 MOL      0.089378
    182 H89        -5.1590   -0.1860   -2.0830 hn        1 MOL      0.062026
    183 Ca1         2.0220   -0.6230    1.3330 Ca        1 MOL      1.736751
    184 O25         0.8030   -0.2790    3.6890 oh        1 MOL     -0.826196
    185 H90         1.1630    0.4260    4.2250 ho        1 MOL      0.380661
    186 H91         0.4120   -0.8850    4.3260 ho        1 MOL      0.380661
    187 O26         0.8520   -3.0020    2.1790 oh        1 MOL     -0.826196
    188 H92         1.3960   -3.7920    2.1130 ho        1 MOL      0.380661
    189 H93         0.3100   -3.1390    2.9530 ho        1 MOL      0.380661
@<TRIPOS>BOND
     1    1    2 1   
     2    1    4 1   
     3    1    5 1   
     4    1    6 1   
     5    2    3 2   
     6    2    7 1   
     7    7    8 1   
     8    7   15 1   
     9    8    9 1   
    10    8   11 1   
    11    8   16 1   
    12    9   10 2   
    13    9   19 1   
    14   11   12 1   
    15   11   17 1   
    16   11   18 1   
    17   12   13 1   
    18   12   14 1   
    19   19   20 1   
    20   19   28 1   
    21   20   21 1   
    22   20   23 1   
    23   20   29 1   
    24   21   22 2   
    25   21   41 1   
    26   23   24 1   
    27   23   30 1   
    28   23   31 1   
    29   24   25 1   
    30   24   32 1   
    31   24   33 1   
    32   25   26 1   
    33   25   34 1   
    34   25   35 1   
    35   26   27 1   
    36   26   36 1   
    37   26   37 1   
    38   27   38 1   
    39   27   39 1   
    40   27   40 1   
    41   41   42 1   
    42   41   49 1   
    43   42   43 1   
    44   42   45 1   
    45   42   50 1   
    46   43   44 2   
    47   43   53 1   
    48   45   46 1   
    49   45   51 1   
    50   45   52 1   
    51   46   47 1   
    52   46   48 1   
    53   53   54 1   
    54   53   57 1   
    55   54   55 1   
    56   54   58 1   
    57   54   59 1   
    58   55   56 2   
    59   55   60 1   
    60   60   61 1   
    61   60   68 1   
    62   61   62 1   
    63   61   64 1   
    64   61   69 1   
    65   62   63 2   
    66   62   72 1   
    67   64   65 1   
    68   64   70 1   
    69   64   71 1   
    70   65   66 1   
    71   65   67 1   
    72   72   73 1   
    73   72   76 1   
    74   73   74 1   
    75   73   77 1   
    76   73   78 1   
    77   74   75 2   
    78   74   79 1   
    79   79   80 1   
    80   79   86 1   
    81   80   81 1   
    82   80   83 1   
    83   80   87 1   
    84   81   82 2   
    85   81   93 1   
    86   83   84 1   
    87   83   85 1   
    88   83   88 1   
    89   84   90 1   
    90   84   91 1   
    91   84   92 1   
    92   85   89 1   
    93   93   94 1   
    94   93  101 1   
    95   94   95 1   
    96   94   97 1   
    97   94  102 1   
    98   95   96 2   
    99   95  112 1   
   100   97   98 1   
   101   97   99 1   
   102   97  103 1   
   103   98  100 1   
   104   98  104 1   
   105   98  105 1   
   106   99  106 1   
   107   99  107 1   
   108   99  108 1   
   109  100  109 1   
   110  100  110 1   
   111  100  111 1   
   112  112  113 1   
   113  112  119 1   
   114  113  114 1   
   115  113  116 1   
   116  113  120 1   
   117  114  115 2   
   118  114  126 1   
   119  116  117 1   
   120  116  118 1   
   121  116  121 1   
   122  117  123 1   
   123  117  124 1   
   124  117  125 1   
   125  118  122 1   
   126  126  127 1   
   127  126  133 1   
   128  127  128 1   
   129  127  130 1   
   130  127  134 1   
   131  128  129 2   
   132  128  140 1   
   133  130  131 1   
   134  130  132 1   
   135  130  135 1   
   136  131  137 1   
   137  131  138 1   
   138  131  139 1   
   139  132  136 1   
   140  140  141 1   
   141  140  149 1   
   142  141  142 1   
   143  141  144 1   
   144  141  150 1   
   145  142  143 2   
   146  142  162 1   
   147  144  145 1   
   148  144  151 1   
   149  144  152 1   
   150  145  146 1   
   151  145  153 1   
   152  145  154 1   
   153  146  147 1   
   154  146  155 1   
   155  146  156 1   
   156  147  148 1   
   157  147  157 1   
   158  147  158 1   
   159  148  159 1   
   160  148  160 1   
   161  148  161 1   
   162  162  163 1   
   163  162  171 1   
   164  163  164 1   
   165  163  166 1   
   166  163  172 1   
   167  164  165 2   
   168  164  177 1   
   169  166  167 1   
   170  166  173 1   
   171  166  174 1   
   172  167  168 1   
   173  167  175 1   
   174  167  176 1   
   175  168  169 1   
   176  168  170 1   
   177  177  178 1   
   178  177  182 1   
   179  178  179 1   
   180  178  180 1   
   181  178  181 1   
   182  184  185 1   
   183  184  186 1   
   184  187  188 1   
   185  187  189 1   
@<TRIPOS>SUBSTRUCTURE
     1 MOL         1 TEMP              0 ****  ****    0 ROOT
