@<TRIPOS>MOLECULE
MOL
  172   171     1     0     0
SMALL
resp


@<TRIPOS>ATOM
      1 C1          0.3250   -1.9010    6.2480 c3        1 MOL     -0.396178
      2 C2          0.5530   -2.1710    4.7500 c         1 MOL      0.757911
      3 O1         -0.3160   -2.7770    4.0870 o         1 MOL     -0.569497
      4 H1          1.2510   -2.0810    6.7940 hc        1 MOL      0.091614
      5 H2          0.0180   -0.8640    6.3880 hc        1 MOL      0.091614
      6 H3         -0.4540   -2.5650    6.6230 hc        1 MOL      0.091614
      7 N1          1.7150   -1.6960    4.2800 n         1 MOL     -0.642488
      8 C3          2.1360   -1.7360    2.8930 c3        1 MOL      0.176332
      9 C4          2.6190   -3.1560    2.5170 c         1 MOL      0.517141
     10 O2          3.1640   -3.9050    3.3310 o         1 MOL     -0.564812
     11 C5          3.3180   -0.7850    2.7240 c3        1 MOL     -0.241567
     12 C6          3.8740   -0.8140    1.2430 c         1 MOL      0.796712
     13 O3          3.1170   -0.9090    0.2510 o         1 MOL     -0.733634
     14 O4          5.1320   -0.7360    1.1230 o         1 MOL     -0.733634
     15 H4          2.3730   -1.3360    4.9540 hn        1 MOL      0.320258
     16 H5          1.2490   -1.4390    2.3260 h1        1 MOL      0.049859
     17 H6          4.1340   -1.1850    3.3320 hc        1 MOL      0.048648
     18 H7          3.0940    0.2800    2.8630 hc        1 MOL      0.048648
     19 N2          2.2620   -3.5260    1.2760 n         1 MOL     -0.374411
     20 C7          2.7130   -4.8070    0.7190 c3        1 MOL      0.365360
     21 C8          3.5440   -4.6800   -0.6060 c         1 MOL      0.193205
     22 O5          3.7030   -5.6880   -1.2910 o         1 MOL     -0.501275
     23 C9          1.4520   -5.6830    0.5260 c3        1 MOL     -0.144799
     24 H8          1.9200   -2.8010    0.6590 hn        1 MOL      0.151512
     25 H9          3.4190   -5.2840    1.3990 h1        1 MOL     -0.011138
     26 H10         0.6280   -5.2950   -0.0730 hc        1 MOL      0.031041
     27 H11         1.8170   -6.6210    0.0830 hc        1 MOL      0.031041
     28 H12         1.0190   -5.9650    1.4810 hc        1 MOL      0.031041
     29 N3          3.9280   -3.4970   -1.1130 n         1 MOL      0.269654
     30 C10         4.9730   -3.4480   -2.1880 c3        1 MOL     -0.242865
     31 C11         6.4190   -3.3560   -1.6370 c         1 MOL      0.493626
     32 O6          7.4190   -3.7130   -2.3020 o         1 MOL     -0.515040
     33 C12         4.7580   -2.3450   -3.2440 c3        1 MOL      0.275891
     34 C13         3.3260   -2.1130   -3.7240 c         1 MOL      0.426369
     35 O7          2.7310   -1.0800   -3.3080 o         1 MOL     -0.623614
     36 O8          2.7490   -3.0070   -4.2770 o         1 MOL     -0.623614
     37 H13         3.9170   -2.6850   -0.5090 hn        1 MOL     -0.117747
     38 H14         4.9160   -4.3620   -2.7870 h1        1 MOL      0.092954
     39 H15         5.3900   -2.5120   -4.1150 hc        1 MOL     -0.051821
     40 H16         5.1570   -1.4360   -2.7930 hc        1 MOL     -0.051821
     41 N4          6.5690   -2.7900   -0.3840 n         1 MOL     -0.457043
     42 C14         7.8620   -2.2210   -0.0090 c3        1 MOL      0.061544
     43 C15         8.1540   -0.8780   -0.7320 c         1 MOL      0.297007
     44 O9          9.2300   -0.6380   -1.3030 o         1 MOL     -0.557336
     45 H17         5.7320   -2.4070    0.0240 hn        1 MOL      0.256555
     46 H18         8.6370   -2.9650   -0.1820 h1        1 MOL      0.051058
     47 H19         7.9190   -2.0850    1.0720 h1        1 MOL      0.051058
     48 N5          7.1860   -0.0470   -0.7520 n         1 MOL     -0.093550
     49 C16         7.2750    1.3560   -1.2060 c3        1 MOL     -0.085649
     50 C17         6.9090    2.4090   -0.1730 c         1 MOL      0.402234
     51 O10         6.7560    3.5720   -0.4410 o         1 MOL     -0.477988
     52 C18         6.5010    1.5370   -2.5600 c3        1 MOL     -0.073082
     53 C19         5.0140    1.9580   -2.4850 c         1 MOL      0.415743
     54 N6          4.6220    2.6940   -3.4360 n         1 MOL     -0.592891
     55 O11         4.2010    1.4290   -1.7080 o         1 MOL     -0.667200
     56 H20         6.2980   -0.3320   -0.3510 hn        1 MOL      0.411318
     57 H21         8.3200    1.5930   -1.4260 h1        1 MOL      0.114733
     58 H22         6.5440    0.6470   -3.1930 hc        1 MOL      0.059246
     59 H23         7.0190    2.3340   -3.1030 hc        1 MOL      0.059246
     60 H24         5.3940    3.0290   -4.0010 hn        1 MOL      0.329167
     61 H25         3.6630    2.9870   -3.5120 hn        1 MOL      0.329167
     62 N7          6.6250    2.0230    1.1330 n         1 MOL     -0.233059
     63 C20         6.3660    2.9900    2.2190 c3        1 MOL     -0.079976
     64 C21         5.0120    3.7740    2.0860 c         1 MOL      0.454747
     65 O12         4.9330    4.9050    2.5670 o         1 MOL     -0.581941
     66 H26         6.8880    1.0720    1.3590 hn        1 MOL      0.153885
     67 H27         7.2040    3.6440    2.4240 h1        1 MOL      0.093177
     68 H28         6.2960    2.3740    3.1280 h1        1 MOL      0.093177
     69 N8          4.0370    3.3780    1.3000 n         1 MOL     -0.218344
     70 C22         2.8500    4.1070    0.9790 c3        1 MOL     -0.007952
     71 C23         1.5980    3.2080    0.9390 c         1 MOL      0.402096
     72 O13         1.7690    2.0680    0.4610 o         1 MOL     -0.400742
     73 C24         2.9410    4.7000   -0.4850 c3        1 MOL      0.402437
     74 C25         1.8410    5.4740   -1.0170 c3        1 MOL     -0.424726
     75 O14         4.0410    5.6310   -0.3960 oh        1 MOL     -0.674823
     76 H29         4.2350    2.5340    0.7750 hn        1 MOL      0.140553
     77 H30         2.6570    4.9450    1.6430 h1        1 MOL      0.062907
     78 H31         3.2300    3.8440   -1.0940 h1        1 MOL      0.110182
     79 H32         4.4320    5.4270    0.4580 ho        1 MOL      0.412369
     80 H33         2.2480    6.0630   -1.8430 hc        1 MOL      0.104949
     81 H34         1.0860    4.9000   -1.5590 hc        1 MOL      0.104949
     82 H35         1.3750    6.0760   -0.2480 hc        1 MOL      0.104949
     83 N9          0.3330    3.6830    1.2900 n         1 MOL     -0.445489
     84 C26        -0.8720    2.7780    1.3830 c3        1 MOL      0.012531
     85 C27        -1.7300    3.0030    0.1390 c         1 MOL      0.535870
     86 O15        -2.1160    4.1130   -0.1450 o         1 MOL     -0.571183
     87 C28        -1.6110    2.9500    2.7180 c3        1 MOL      0.154123
     88 C29        -0.6210    2.5110    3.8790 c3        1 MOL      0.019475
     89 C30        -2.8410    2.0910    2.8580 c3        1 MOL     -0.119643
     90 C31        -0.7240    3.3060    5.2190 c3        1 MOL     -0.183551
     91 H36         0.2930    4.6480    1.6080 hn        1 MOL      0.287095
     92 H37        -0.5510    1.7390    1.3330 h1        1 MOL     -0.001880
     93 H38        -2.0000    3.9690    2.7290 hc        1 MOL     -0.018404
     94 H39         0.3760    2.8450    3.5850 hc        1 MOL      0.025709
     95 H40        -0.7050    1.4360    4.0230 hc        1 MOL      0.025709
     96 H41        -2.5700    1.0400    2.8250 hc        1 MOL      0.017198
     97 H42        -3.3150    2.4490    3.7630 hc        1 MOL      0.017198
     98 H43        -3.5540    2.2190    2.0420 hc        1 MOL      0.017198
     99 H44        -1.7010    3.2340    5.6950 hc        1 MOL      0.034704
    100 H45         0.0260    2.8640    5.8850 hc        1 MOL      0.034704
    101 H46        -0.4560    4.3520    5.0850 hc        1 MOL      0.034704
    102 N10        -2.1920    1.9060   -0.5100 n         1 MOL     -0.210247
    103 C32        -3.2710    1.8380   -1.4720 c3        1 MOL      0.124854
    104 C33        -4.6480    1.3170   -0.9870 c         1 MOL      0.265782
    105 O16        -4.7960    0.6370    0.0490 o         1 MOL     -0.248533
    106 C34        -2.8490    0.9690   -2.7050 c3        1 MOL     -0.153318
    107 C35        -1.4160    1.2080   -3.1640 c         1 MOL      0.863361
    108 O17        -1.1470    2.2780   -3.6860 o         1 MOL     -0.773407
    109 O18        -0.5700    0.3210   -2.9940 o         1 MOL     -0.773407
    110 H47        -1.9750    0.9840   -0.1630 hn        1 MOL      0.078782
    111 H48        -3.3830    2.8280   -1.9180 h1        1 MOL      0.032666
    112 H49        -3.4720    1.0920   -3.5890 hc        1 MOL      0.031577
    113 H50        -2.9910   -0.0800   -2.4860 hc        1 MOL      0.031577
    114 N11        -5.6620    1.4860   -1.8000 n         1 MOL     -0.496370
    115 C36        -7.0100    1.2010   -1.2580 c3        1 MOL      0.324205
    116 C37        -7.2070   -0.2020   -0.7060 c         1 MOL      0.381727
    117 O19        -7.6380   -0.2320    0.4450 o         1 MOL     -0.473623
    118 C38        -8.1310    1.6120   -2.2520 c3        1 MOL     -0.178734
    119 C39        -9.5210    1.3400   -1.7700 ca        1 MOL      0.155066
    120 C40        -9.9470    1.8390   -0.4890 ca        1 MOL     -0.211848
    121 C41       -10.4210    0.6870   -2.5860 ca        1 MOL     -0.211848
    122 C42       -11.2570    1.5910   -0.0560 ca        1 MOL     -0.075295
    123 C43       -11.7470    0.4920   -2.1320 ca        1 MOL     -0.075295
    124 C44       -12.1470    0.8900   -0.8410 ca        1 MOL     -0.151771
    125 H51        -5.6770    2.1400   -2.5790 hn        1 MOL      0.304988
    126 H52        -7.1430    1.8360   -0.3840 h1        1 MOL      0.036333
    127 H53        -7.9830    1.1520   -3.2280 hc        1 MOL      0.046234
    128 H54        -8.1210    2.6850   -2.4470 hc        1 MOL      0.046234
    129 H55        -9.3610    2.4020    0.2100 ha        1 MOL      0.130316
    130 H56       -10.0980    0.3720   -3.5700 ha        1 MOL      0.130316
    131 H57       -11.5970    1.8660    0.9280 ha        1 MOL      0.097910
    132 H58       -12.5290    0.1050   -2.7730 ha        1 MOL      0.097910
    133 H59       -13.1180    0.6670   -0.4430 ha        1 MOL      0.113979
    134 N12        -6.7920   -1.3700   -1.3600 n         1 MOL     -0.206967
    135 C45        -6.7500   -2.6710   -0.6860 c3        1 MOL     -0.039545
    136 C46        -5.7810   -2.8440    0.4970 c         1 MOL      0.334930
    137 O20        -6.0020   -3.7400    1.3010 o         1 MOL     -0.494542
    138 C47        -6.4610   -3.7710   -1.7680 c3        1 MOL     -0.047756
    139 C48        -5.7650   -2.9470   -2.8390 c3        1 MOL      0.000074
    140 C49        -6.4460   -1.5440   -2.7680 c3        1 MOL      0.107021
    141 H60        -7.7270   -3.0110   -0.3320 h1        1 MOL      0.075727
    142 H61        -5.8420   -4.6200   -1.4980 hc        1 MOL      0.049508
    143 H62        -7.3600   -4.1890   -2.2130 hc        1 MOL      0.049508
    144 H63        -4.7030   -2.7630   -2.6700 hc        1 MOL      0.012142
    145 H64        -5.8800   -3.3290   -3.8590 hc        1 MOL      0.012142
    146 H65        -5.7800   -0.7440   -3.0760 h1        1 MOL     -0.015075
    147 H66        -7.3180   -1.4900   -3.4140 h1        1 MOL     -0.015075
    148 N13        -4.6690   -2.1370    0.5170 n         1 MOL     -0.198276
    149 C50        -3.7990   -2.2240    1.7040 c3        1 MOL     -0.176094
    150 C51        -4.4520   -1.5310    2.9570 c         1 MOL      0.421372
    151 O21        -4.4070   -2.0410    4.1200 o         1 MOL     -0.551169
    152 C52        -2.4260   -1.5380    1.4480 c3        1 MOL      0.067569
    153 C53        -1.7110   -2.2690    0.3420 c3        1 MOL     -0.098221
    154 C54        -0.4450   -1.4750   -0.1860 c         1 MOL      0.648092
    155 O22        -0.2620   -0.3020    0.2180 o         1 MOL     -0.689008
    156 O23         0.3850   -2.0680   -0.9390 o         1 MOL     -0.689008
    157 H67        -4.5150   -1.3930   -0.1390 hn        1 MOL      0.258964
    158 H68        -3.5880   -3.2570    1.9620 h1        1 MOL      0.140954
    159 H69        -1.9240   -1.4620    2.4150 hc        1 MOL      0.058133
    160 H70        -2.5940   -0.5730    0.9670 hc        1 MOL      0.058133
    161 H71        -2.4270   -2.3030   -0.4820 hc        1 MOL      0.033039
    162 H72        -1.3080   -3.2030    0.7410 hc        1 MOL      0.033039
    163 N14        -5.1990   -0.4330    2.7250 n         1 MOL      0.021929
    164 C55        -6.0850    0.2830    3.6850 c3        1 MOL     -0.222739
    165 H73        -5.5000    0.6070    4.5450 h1        1 MOL      0.082491
    166 H74        -6.5250    1.1530    3.1960 h1        1 MOL      0.082491
    167 H75        -6.8780   -0.3880    4.0170 h1        1 MOL      0.082491
    168 H76        -5.1440   -0.0000    1.8150 hn        1 MOL     -0.017481
    169 Ca1         1.6730    0.2110   -1.4270 Ca        1 MOL      1.694813
    170 O24         1.3310    2.7180   -2.4850 oh        1 MOL     -0.957234
    171 H77         1.6660    3.5000   -2.9390 ho        1 MOL      0.446598
    172 H78         0.4410    2.6030   -2.8210 ho        1 MOL      0.446598
@<TRIPOS>BOND
     1    1    2 1   
     2    1    4 1   
     3    1    5 1   
     4    1    6 1   
     5    2    3 2   
     6    2    7 1   
     7    7    8 1   
     8    7   15 1   
     9    8    9 1   
    10    8   11 1   
    11    8   16 1   
    12    9   10 2   
    13    9   19 1   
    14   11   12 1   
    15   11   17 1   
    16   11   18 1   
    17   12   13 1   
    18   12   14 1   
    19   19   20 1   
    20   19   24 1   
    21   20   21 1   
    22   20   23 1   
    23   20   25 1   
    24   21   22 2   
    25   21   29 1   
    26   23   26 1   
    27   23   27 1   
    28   23   28 1   
    29   29   30 1   
    30   29   37 1   
    31   30   31 1   
    32   30   33 1   
    33   30   38 1   
    34   31   32 2   
    35   31   41 1   
    36   33   34 1   
    37   33   39 1   
    38   33   40 1   
    39   34   35 1   
    40   34   36 1   
    41   41   42 1   
    42   41   45 1   
    43   42   43 1   
    44   42   46 1   
    45   42   47 1   
    46   43   44 2   
    47   43   48 1   
    48   48   49 1   
    49   48   56 1   
    50   49   50 1   
    51   49   52 1   
    52   49   57 1   
    53   50   51 2   
    54   50   62 1   
    55   52   53 1   
    56   52   58 1   
    57   52   59 1   
    58   53   54 1   
    59   53   55 2   
    60   54   60 1   
    61   54   61 1   
    62   62   63 1   
    63   62   66 1   
    64   63   64 1   
    65   63   67 1   
    66   63   68 1   
    67   64   65 2   
    68   64   69 1   
    69   69   70 1   
    70   69   76 1   
    71   70   71 1   
    72   70   73 1   
    73   70   77 1   
    74   71   72 2   
    75   71   83 1   
    76   73   74 1   
    77   73   75 1   
    78   73   78 1   
    79   74   80 1   
    80   74   81 1   
    81   74   82 1   
    82   75   79 1   
    83   83   84 1   
    84   83   91 1   
    85   84   85 1   
    86   84   87 1   
    87   84   92 1   
    88   85   86 2   
    89   85  102 1   
    90   87   88 1   
    91   87   89 1   
    92   87   93 1   
    93   88   90 1   
    94   88   94 1   
    95   88   95 1   
    96   89   96 1   
    97   89   97 1   
    98   89   98 1   
    99   90   99 1   
   100   90  100 1   
   101   90  101 1   
   102  102  103 1   
   103  102  110 1   
   104  103  104 1   
   105  103  106 1   
   106  103  111 1   
   107  104  105 2   
   108  104  114 1   
   109  106  107 1   
   110  106  112 1   
   111  106  113 1   
   112  107  108 1   
   113  107  109 1   
   114  114  115 1   
   115  114  125 1   
   116  115  116 1   
   117  115  118 1   
   118  115  126 1   
   119  116  117 2   
   120  116  134 1   
   121  118  119 1   
   122  118  127 1   
   123  118  128 1   
   124  119  120 ar  
   125  119  121 ar  
   126  120  122 ar  
   127  120  129 1   
   128  121  123 ar  
   129  121  130 1   
   130  122  124 ar  
   131  122  131 1   
   132  123  124 ar  
   133  123  132 1   
   134  124  133 1   
   135  134  135 1   
   136  134  140 1   
   137  135  136 1   
   138  135  138 1   
   139  135  141 1   
   140  136  137 2   
   141  136  148 1   
   142  138  139 1   
   143  138  142 1   
   144  138  143 1   
   145  139  140 1   
   146  139  144 1   
   147  139  145 1   
   148  140  146 1   
   149  140  147 1   
   150  148  149 1   
   151  148  157 1   
   152  149  150 1   
   153  149  152 1   
   154  149  158 1   
   155  150  151 2   
   156  150  163 1   
   157  152  153 1   
   158  152  159 1   
   159  152  160 1   
   160  153  154 1   
   161  153  161 1   
   162  153  162 1   
   163  154  155 1   
   164  154  156 1   
   165  163  164 1   
   166  163  168 1   
   167  164  165 1   
   168  164  166 1   
   169  164  167 1   
   170  170  171 1   
   171  170  172 1   
@<TRIPOS>SUBSTRUCTURE
     1 MOL         1 TEMP              0 ****  ****    0 ROOT
