@<TRIPOS>MOLECULE
MOL
  189   185     1     0     0
SMALL
resp


@<TRIPOS>ATOM
      1 C1         -0.1000    2.3520    5.4890 c3        1 MOL     -0.354207
      2 C2         -0.5830    2.2210    4.0140 c         1 MOL      0.671354
      3 O1         -0.0360    2.8440    3.1060 o         1 MOL     -0.621201
      4 H1          0.6720    1.6080    5.6860 hc        1 MOL      0.092145
      5 H2          0.3060    3.3500    5.6520 hc        1 MOL      0.092145
      6 H3         -0.9410    2.1880    6.1630 hc        1 MOL      0.092145
      7 N1         -1.5280    1.2830    3.7780 n         1 MOL     -0.556925
      8 C3         -2.2910    1.0650    2.4940 c3        1 MOL      0.137917
      9 C4         -3.0890    2.3160    2.0890 c         1 MOL      0.415201
     10 O2         -4.2750    2.4600    2.3830 o         1 MOL     -0.501056
     11 C5         -3.1740   -0.1880    2.6820 c3        1 MOL     -0.045030
     12 C6         -3.8450   -0.6290    1.4220 c         1 MOL      0.661195
     13 O3         -3.4880   -0.1320    0.3590 o         1 MOL     -0.664456
     14 O4         -4.8840   -1.3670    1.5010 o         1 MOL     -0.664456
     15 H4         -1.8720    0.7900    4.5950 hn        1 MOL      0.303966
     16 H5         -1.4620    0.9930    1.7940 h1        1 MOL      0.051192
     17 H6         -3.8100   -0.0180    3.5470 hc        1 MOL      0.009784
     18 H7         -2.5090   -1.0040    2.9540 hc        1 MOL      0.009784
     19 N2         -2.3670    3.2040    1.3730 n         1 MOL     -0.204877
     20 C7         -2.8500    4.5740    1.0740 c3        1 MOL     -0.154459
     21 C8         -3.5570    4.8440   -0.2170 c         1 MOL      0.342864
     22 O5         -4.0710    5.9570   -0.5000 o         1 MOL     -0.581659
     23 C9         -1.6420    5.4650    1.3620 c3        1 MOL      0.175304
     24 C10        -1.5690    6.9860    1.2120 c3        1 MOL     -0.296345
     25 C11        -2.2460    7.8730    2.3200 c3        1 MOL     -0.025963
     26 C12        -3.7580    7.7030    2.2540 c3        1 MOL      0.051106
     27 N3         -4.4100    8.7520    2.9760 n4        1 MOL     -0.381380
     28 H8         -1.4530    3.0140    1.0100 hn        1 MOL      0.268463
     29 H9         -3.5600    4.9360    1.8160 h1        1 MOL      0.050225
     30 H10        -0.7760    5.0970    0.8140 hc        1 MOL      0.038169
     31 H11        -1.3420    5.3220    2.4020 hc        1 MOL      0.038169
     32 H12        -2.0640    7.1590    0.2610 hc        1 MOL      0.091094
     33 H13        -0.5030    7.1920    1.1580 hc        1 MOL      0.091094
     34 H14        -1.8690    8.9040    2.3120 hc        1 MOL      0.031495
     35 H15        -1.9550    7.4180    3.2630 hc        1 MOL      0.031495
     36 H16        -4.0850    6.7690    2.7100 hx        1 MOL      0.122944
     37 H17        -4.1320    7.7990    1.2350 hx        1 MOL      0.122944
     38 H18        -4.1790    9.6640    2.6260 hn        1 MOL      0.322359
     39 H19        -5.4040    8.5570    2.9030 hn        1 MOL      0.322359
     40 H20        -4.1910    8.8110    3.9560 hn        1 MOL      0.322359
     41 N4         -3.6000    3.8420   -1.0370 n         1 MOL     -0.172979
     42 C13        -4.5320    3.8830   -2.1400 c3        1 MOL      0.284500
     43 C14        -5.7910    3.0270   -1.8310 c         1 MOL      0.339054
     44 O6         -6.8110    3.3510   -2.3730 o         1 MOL     -0.520934
     45 C15        -3.8110    3.3310   -3.3810 c3        1 MOL     -0.429277
     46 C16        -2.9940    2.0650   -3.2490 c         1 MOL      0.865263
     47 O7         -2.1860    1.8930   -4.1990 o         1 MOL     -0.730390
     48 O8         -3.0090    1.3840   -2.1960 o         1 MOL     -0.730390
     49 H21        -3.2770    2.9550   -0.6560 hn        1 MOL      0.142440
     50 H22        -4.9120    4.8790   -2.3600 h1        1 MOL      0.032254
     51 H23        -3.0740    4.0590   -3.7250 hc        1 MOL      0.094050
     52 H24        -4.5890    3.0950   -4.1160 hc        1 MOL      0.094050
     53 N5         -5.6650    1.9800   -0.9790 n         1 MOL     -0.053394
     54 C17        -6.6460    0.9620   -0.6480 c3        1 MOL     -0.375700
     55 C18        -6.6430   -0.1250   -1.6760 c         1 MOL      0.692186
     56 O9         -6.9660    0.0970   -2.8520 o         1 MOL     -0.517947
     57 H25        -4.7520    1.7780   -0.5910 hn        1 MOL      0.111262
     58 H26        -7.5740    1.5320   -0.5750 h1        1 MOL      0.140824
     59 H27        -6.4410    0.6220    0.3600 h1        1 MOL      0.140824
     60 N6         -6.2770   -1.3390   -1.2110 n         1 MOL     -0.521904
     61 C19        -6.5140   -2.6520   -1.9120 c3        1 MOL     -0.029316
     62 C20        -6.4910   -3.8410   -0.9260 c         1 MOL      0.529513
     63 O10        -7.0730   -4.8880   -1.2480 o         1 MOL     -0.556776
     64 C21        -5.4720   -2.7500   -3.0390 c3        1 MOL     -0.222432
     65 C22        -4.0430   -2.4140   -2.6330 c         1 MOL      0.739977
     66 O11        -3.6590   -2.8270   -1.5150 o         1 MOL     -0.695021
     67 O12        -3.2270   -1.8060   -3.3660 o         1 MOL     -0.695021
     68 H28        -5.8680   -1.3350   -0.2930 hn        1 MOL      0.232026
     69 H29        -7.5210   -2.6240   -2.3250 h1        1 MOL      0.112794
     70 H30        -5.6850   -2.0270   -3.8280 hc        1 MOL      0.073721
     71 H31        -5.4770   -3.7720   -3.4320 hc        1 MOL      0.073721
     72 N7         -6.0940   -3.5730    0.3330 n         1 MOL     -0.307310
     73 C23        -5.9630   -4.5900    1.3650 c3        1 MOL     -0.068107
     74 C24        -4.5730   -5.1220    1.5610 c         1 MOL      0.535450
     75 O13        -4.3640   -6.1270    2.2140 o         1 MOL     -0.554236
     76 H32        -5.6580   -2.6790    0.4950 hn        1 MOL      0.272338
     77 H33        -6.6180   -5.4320    1.1480 h1        1 MOL      0.075107
     78 H34        -6.2610   -4.1820    2.3270 h1        1 MOL      0.075107
     79 N8         -3.5600   -4.4550    0.8770 n         1 MOL     -0.241927
     80 C25        -2.2180   -5.0060    0.8820 c3        1 MOL     -0.210965
     81 C26        -1.2020   -3.8680    1.0440 c         1 MOL      0.708850
     82 O14        -1.4300   -2.7620    0.5730 o         1 MOL     -0.602696
     83 C27        -1.9080   -5.8020   -0.4120 c3        1 MOL      0.381909
     84 C28        -2.7320   -7.0870   -0.3120 c3        1 MOL     -0.548597
     85 O15        -2.4190   -5.0690   -1.5950 oh        1 MOL     -0.610354
     86 H35        -3.6900   -3.6110    0.3400 hn        1 MOL      0.177536
     87 H36        -2.0600   -5.6340    1.7570 h1        1 MOL      0.107470
     88 H37        -0.8310   -5.8880   -0.5460 h1        1 MOL      0.016998
     89 H38        -2.9940   -4.3410   -1.3500 ho        1 MOL      0.391365
     90 H39        -2.5170   -7.6680    0.5800 hc        1 MOL      0.147127
     91 H40        -3.7950   -6.8530   -0.3460 hc        1 MOL      0.147127
     92 H41        -2.5390   -7.7080   -1.1920 hc        1 MOL      0.147127
     93 N9         -0.0290   -4.2620    1.6240 n         1 MOL     -0.693400
     94 C29         1.1110   -3.2810    1.7400 c3        1 MOL      0.007143
     95 C30         2.3320   -3.6490    0.8650 c         1 MOL      0.509563
     96 O16         2.8490   -4.7610    1.0580 o         1 MOL     -0.543174
     97 C31         1.4820   -3.0570    3.2270 c3        1 MOL      0.345720
     98 C32         0.2490   -2.5220    4.0640 c3        1 MOL      0.104378
     99 C33         2.6980   -2.0890    3.3610 c3        1 MOL     -0.146980
    100 C34         0.5740   -2.4130    5.5800 c3        1 MOL     -0.185907
    101 H42         0.1210   -5.2270    1.8580 hn        1 MOL      0.337542
    102 H43         0.7650   -2.2930    1.4470 h1        1 MOL      0.072339
    103 H44         1.9530   -3.9520    3.6390 hc        1 MOL     -0.063624
    104 H45        -0.4550   -3.3480    3.9780 hc        1 MOL     -0.029330
    105 H46        -0.0890   -1.5820    3.6260 hc        1 MOL     -0.029330
    106 H47         3.5580   -2.4520    2.7980 hc        1 MOL     -0.010922
    107 H48         2.4380   -1.1290    2.9120 hc        1 MOL     -0.010922
    108 H49         2.9350   -2.0280    4.4310 hc        1 MOL     -0.010922
    109 H50         0.8920   -3.3940    5.9370 hc        1 MOL      0.039402
    110 H51         1.2860   -1.6210    5.7810 hc        1 MOL      0.039402
    111 H52        -0.3440   -2.1540    6.1180 hc        1 MOL      0.039402
    112 N10         2.8860   -2.6590    0.1530 n         1 MOL     -0.241643
    113 C35         4.1440   -2.7490   -0.6130 c3        1 MOL      0.087603
    114 C36         5.4410   -2.2790    0.0590 c         1 MOL      0.280846
    115 O17         5.3710   -1.5820    1.0740 o         1 MOL     -0.320951
    116 C37         4.0740   -1.9860   -1.9500 c3        1 MOL      0.165198
    117 C38         2.7620   -2.1550   -2.6730 c3        1 MOL     -0.282174
    118 O18         4.3390   -0.6010   -1.8980 oh        1 MOL     -0.489715
    119 H53         2.3810   -1.7840    0.0740 hn        1 MOL      0.306844
    120 H54         4.2780   -3.8040   -0.8590 h1        1 MOL      0.025101
    121 H55         4.8460   -2.3230   -2.6450 h1        1 MOL      0.047591
    122 H56         3.6610    0.0090   -2.2030 ho        1 MOL      0.410518
    123 H57         2.1570   -2.9510   -2.2450 hc        1 MOL      0.070827
    124 H58         2.1670   -1.2360   -2.7060 hc        1 MOL      0.070827
    125 H59         3.1190   -2.4140   -3.6680 hc        1 MOL      0.070827
    126 N11         6.6190   -2.5620   -0.5140 n         1 MOL     -0.233392
    127 C39         7.8670   -2.0030   -0.0270 c3        1 MOL     -0.145065
    128 C40         7.8440   -0.4900   -0.0280 c         1 MOL      0.534017
    129 O19         8.4210    0.0680    0.8670 o         1 MOL     -0.527225
    130 C41         9.1340   -2.5740   -0.7340 c3        1 MOL      0.201169
    131 C42         9.5030   -3.9980   -0.2590 c3        1 MOL     -0.177706
    132 O20         8.8730   -2.5970   -2.0910 oh        1 MOL     -0.622788
    133 H60         6.5600   -3.1660   -1.3190 hn        1 MOL      0.266936
    134 H61         7.9210   -2.2210    1.0340 h1        1 MOL      0.129800
    135 H62         9.9590   -1.8840   -0.5410 h1        1 MOL      0.066767
    136 H63         9.7070   -2.7430   -2.5390 ho        1 MOL      0.418250
    137 H64         8.7390   -4.7590   -0.4370 hc        1 MOL      0.057109
    138 H65        10.4670   -4.3330   -0.6620 hc        1 MOL      0.057109
    139 H66         9.7120   -3.9960    0.8120 hc        1 MOL      0.057109
    140 N12         7.1640    0.1390   -1.0290 n         1 MOL     -0.323104
    141 C43         7.0260    1.5810   -1.1840 c3        1 MOL     -0.053744
    142 C44         6.0260    2.2060   -0.1620 c         1 MOL      0.384515
    143 O21         6.1400    3.4170    0.0780 o         1 MOL     -0.557171
    144 C45         6.7270    1.8180   -2.6390 c3        1 MOL     -0.102644
    145 C46         6.6900    3.3080   -2.9860 c3        1 MOL      0.014394
    146 C47         6.4010    3.4240   -4.4850 c3        1 MOL      0.160236
    147 C48         6.1930    4.9760   -4.8190 c3        1 MOL     -0.111276
    148 N13         4.7700    5.4360   -4.6460 n4        1 MOL     -0.374629
    149 H67         6.6240   -0.4460   -1.6450 hn        1 MOL      0.200160
    150 H68         7.9930    1.9990   -0.9180 h1        1 MOL      0.124647
    151 H69         5.8200    1.3090   -2.9540 hc        1 MOL      0.038022
    152 H70         7.5800    1.3210   -3.0910 hc        1 MOL      0.038022
    153 H71         7.6260    3.8480   -2.8140 hc        1 MOL      0.027681
    154 H72         5.8830    3.7980   -2.4510 hc        1 MOL      0.027681
    155 H73         5.4430    2.9580   -4.7110 hc        1 MOL     -0.010383
    156 H74         7.1510    2.9840   -5.1300 hc        1 MOL     -0.010383
    157 H75         6.4490    4.9880   -5.8780 hx        1 MOL      0.116735
    158 H76         6.8910    5.6280   -4.3010 hx        1 MOL      0.116735
    159 H77         4.6480    6.3730   -5.0070 hn        1 MOL      0.339474
    160 H78         4.1130    4.9200   -5.2240 hn        1 MOL      0.339474
    161 H79         4.5030    5.4680   -3.6730 hn        1 MOL      0.339474
    162 N14         5.0640    1.4480    0.3880 n         1 MOL      0.075125
    163 C49         4.0660    1.8930    1.3210 c3        1 MOL      0.002834
    164 C50         4.6420    1.7960    2.7410 c         1 MOL      0.394999
    165 O22         4.3680    2.7460    3.4960 o         1 MOL     -0.532548
    166 C51         2.8590    0.9720    1.1320 c3        1 MOL      0.114348
    167 C52         1.8980    1.5540    0.0010 c3        1 MOL     -0.509551
    168 C53         0.6460    0.6530   -0.2030 c         1 MOL      1.066263
    169 O23         0.7190   -0.5520   -0.1990 o         1 MOL     -0.873779
    170 O24        -0.4170    1.1180   -0.5620 o         1 MOL     -0.873779
    171 H80         4.8660    0.5070    0.0710 hn        1 MOL     -0.119983
    172 H81         3.8350    2.9300    1.1190 h1        1 MOL      0.073184
    173 H82         2.2740    0.9020    2.0510 hc        1 MOL      0.053686
    174 H83         3.0670   -0.0040    0.7080 hc        1 MOL      0.053686
    175 H84         2.3840    1.5050   -0.9710 hc        1 MOL      0.072382
    176 H85         1.6320    2.5240    0.4320 hc        1 MOL      0.072382
    177 N15         5.5270    0.8520    3.0650 n         1 MOL     -0.077331
    178 C54         6.4230    0.8730    4.1800 c3        1 MOL     -0.355109
    179 H86         7.0480   -0.0190    4.1590 h1        1 MOL      0.130413
    180 H87         7.0540    1.7600    4.1230 h1        1 MOL      0.130413
    181 H88         5.8490    0.8930    5.1070 h1        1 MOL      0.130413
    182 H89         5.5970    0.0700    2.4290 hn        1 MOL      0.122459
    183 Ca1        -1.7330   -0.8730   -1.4490 Ca        1 MOL      1.793103
    184 O25        -0.6430   -3.0460   -2.7620 oh        1 MOL     -0.822459
    185 H90        -1.3110   -3.6980   -2.9780 ho        1 MOL      0.382417
    186 H91         0.1290   -3.3350   -3.2520 ho        1 MOL      0.382417
    187 O26        -0.4210   -0.0410   -3.6120 oh        1 MOL     -0.822459
    188 H92        -0.9920    0.5930   -4.0530 ho        1 MOL      0.382417
    189 H93         0.4560    0.3400   -3.6920 ho        1 MOL      0.382417
@<TRIPOS>BOND
     1    1    2 1   
     2    1    4 1   
     3    1    5 1   
     4    1    6 1   
     5    2    3 2   
     6    2    7 1   
     7    7    8 1   
     8    7   15 1   
     9    8    9 1   
    10    8   11 1   
    11    8   16 1   
    12    9   10 2   
    13    9   19 1   
    14   11   12 1   
    15   11   17 1   
    16   11   18 1   
    17   12   13 1   
    18   12   14 1   
    19   19   20 1   
    20   19   28 1   
    21   20   21 1   
    22   20   23 1   
    23   20   29 1   
    24   21   22 2   
    25   21   41 1   
    26   23   24 1   
    27   23   30 1   
    28   23   31 1   
    29   24   25 1   
    30   24   32 1   
    31   24   33 1   
    32   25   26 1   
    33   25   34 1   
    34   25   35 1   
    35   26   27 1   
    36   26   36 1   
    37   26   37 1   
    38   27   38 1   
    39   27   39 1   
    40   27   40 1   
    41   41   42 1   
    42   41   49 1   
    43   42   43 1   
    44   42   45 1   
    45   42   50 1   
    46   43   44 2   
    47   43   53 1   
    48   45   46 1   
    49   45   51 1   
    50   45   52 1   
    51   46   47 1   
    52   46   48 1   
    53   53   54 1   
    54   53   57 1   
    55   54   55 1   
    56   54   58 1   
    57   54   59 1   
    58   55   56 2   
    59   55   60 1   
    60   60   61 1   
    61   60   68 1   
    62   61   62 1   
    63   61   64 1   
    64   61   69 1   
    65   62   63 2   
    66   62   72 1   
    67   64   65 1   
    68   64   70 1   
    69   64   71 1   
    70   65   66 1   
    71   65   67 1   
    72   72   73 1   
    73   72   76 1   
    74   73   74 1   
    75   73   77 1   
    76   73   78 1   
    77   74   75 2   
    78   74   79 1   
    79   79   80 1   
    80   79   86 1   
    81   80   81 1   
    82   80   83 1   
    83   80   87 1   
    84   81   82 2   
    85   81   93 1   
    86   83   84 1   
    87   83   85 1   
    88   83   88 1   
    89   84   90 1   
    90   84   91 1   
    91   84   92 1   
    92   85   89 1   
    93   93   94 1   
    94   93  101 1   
    95   94   95 1   
    96   94   97 1   
    97   94  102 1   
    98   95   96 2   
    99   95  112 1   
   100   97   98 1   
   101   97   99 1   
   102   97  103 1   
   103   98  100 1   
   104   98  104 1   
   105   98  105 1   
   106   99  106 1   
   107   99  107 1   
   108   99  108 1   
   109  100  109 1   
   110  100  110 1   
   111  100  111 1   
   112  112  113 1   
   113  112  119 1   
   114  113  114 1   
   115  113  116 1   
   116  113  120 1   
   117  114  115 2   
   118  114  126 1   
   119  116  117 1   
   120  116  118 1   
   121  116  121 1   
   122  117  123 1   
   123  117  124 1   
   124  117  125 1   
   125  118  122 1   
   126  126  127 1   
   127  126  133 1   
   128  127  128 1   
   129  127  130 1   
   130  127  134 1   
   131  128  129 2   
   132  128  140 1   
   133  130  131 1   
   134  130  132 1   
   135  130  135 1   
   136  131  137 1   
   137  131  138 1   
   138  131  139 1   
   139  132  136 1   
   140  140  141 1   
   141  140  149 1   
   142  141  142 1   
   143  141  144 1   
   144  141  150 1   
   145  142  143 2   
   146  142  162 1   
   147  144  145 1   
   148  144  151 1   
   149  144  152 1   
   150  145  146 1   
   151  145  153 1   
   152  145  154 1   
   153  146  147 1   
   154  146  155 1   
   155  146  156 1   
   156  147  148 1   
   157  147  157 1   
   158  147  158 1   
   159  148  159 1   
   160  148  160 1   
   161  148  161 1   
   162  162  163 1   
   163  162  171 1   
   164  163  164 1   
   165  163  166 1   
   166  163  172 1   
   167  164  165 2   
   168  164  177 1   
   169  166  167 1   
   170  166  173 1   
   171  166  174 1   
   172  167  168 1   
   173  167  175 1   
   174  167  176 1   
   175  168  169 1   
   176  168  170 1   
   177  177  178 1   
   178  177  182 1   
   179  178  179 1   
   180  178  180 1   
   181  178  181 1   
   182  184  185 1   
   183  184  186 1   
   184  187  188 1   
   185  187  189 1   
@<TRIPOS>SUBSTRUCTURE
     1 MOL         1 TEMP              0 ****  ****    0 ROOT
