@<TRIPOS>MOLECULE
MOL
  189   185     1     0     0
SMALL
resp


@<TRIPOS>ATOM
      1 C1          0.2510    2.9810    6.0260 c3        1 MOL     -0.386104
      2 C2         -0.5160    2.7680    4.7290 c         1 MOL      0.754602
      3 O1         -0.4040    1.6390    4.2170 o         1 MOL     -0.623132
      4 H1          1.1200    3.6110    5.8340 hc        1 MOL      0.097994
      5 H2         -0.3960    3.4670    6.7570 hc        1 MOL      0.097994
      6 H3          0.5800    2.0180    6.4160 hc        1 MOL      0.097994
      7 N1         -1.2150    3.7470    4.1770 n         1 MOL     -0.617102
      8 C3         -1.9910    3.5230    2.9440 c3        1 MOL      0.294682
      9 C4         -1.9600    4.7660    2.0090 c         1 MOL      0.381235
     10 O2         -2.1090    5.9650    2.4210 o         1 MOL     -0.557686
     11 C5         -3.4270    3.1530    3.4190 c3        1 MOL     -0.379041
     12 C6         -4.1380    2.2640    2.3800 c         1 MOL      0.737815
     13 O3         -5.2720    1.7910    2.7330 o         1 MOL     -0.684646
     14 O4         -3.6540    2.0090    1.2580 o         1 MOL     -0.684646
     15 H4         -0.9730    4.6980    4.3800 hn        1 MOL      0.303832
     16 H5         -1.5270    2.6970    2.4090 h1        1 MOL      0.037546
     17 H6         -3.9520    4.0720    3.6560 hc        1 MOL      0.101934
     18 H7         -3.3220    2.5790    4.3390 hc        1 MOL      0.101934
     19 N2         -1.6950    4.4370    0.7350 n         1 MOL     -0.299767
     20 C7         -1.4170    5.4760   -0.3160 c3        1 MOL     -0.070936
     21 C8         -2.4800    5.3520   -1.4590 c         1 MOL      0.556974
     22 O5         -2.7960    6.3260   -2.1210 o         1 MOL     -0.574612
     23 C9          0.0500    5.4550   -0.7590 c3        1 MOL      0.009452
     24 C10         1.0660    4.9210    0.2000 c3        1 MOL     -0.018366
     25 C11         0.3800    6.8400   -1.2880 c3        1 MOL     -0.039647
     26 C12         2.2960    4.4140   -0.4360 c3        1 MOL     -0.200702
     27 H8         -1.5890    3.4590    0.5120 hn        1 MOL      0.454265
     28 H9         -1.5930    6.4810    0.0750 h1        1 MOL      0.105084
     29 H10         0.1010    4.9200   -1.6980 hc        1 MOL      0.032642
     30 H11         0.7540    4.0550    0.8000 hc        1 MOL      0.011740
     31 H12         1.3570    5.6830    0.9270 hc        1 MOL      0.011740
     32 H13        -0.4220    7.3040   -1.8610 hc        1 MOL      0.009917
     33 H14         0.5230    7.5340   -0.4570 hc        1 MOL      0.009917
     34 H15         1.2770    6.9840   -1.8850 hc        1 MOL      0.009917
     35 H16         2.7050    5.2950   -0.9280 hc        1 MOL      0.065934
     36 H17         2.9410    3.9800    0.3360 hc        1 MOL      0.065934
     37 H18         2.1570    3.5730   -1.1160 hc        1 MOL      0.065934
     38 N3         -3.2340    4.2500   -1.6070 n         1 MOL     -0.266259
     39 C13        -4.2880    3.9360   -2.6110 c3        1 MOL      0.247747
     40 C14        -5.5650    3.6200   -1.9830 c         1 MOL      0.312826
     41 O6         -6.5540    4.2600   -2.4220 o         1 MOL     -0.550012
     42 C15        -3.8030    2.8180   -3.5440 c3        1 MOL     -0.328412
     43 C16        -3.1750    1.6240   -2.9200 c         1 MOL      0.816510
     44 O7         -3.5800    1.1430   -1.8480 o         1 MOL     -0.726323
     45 O8         -2.2180    1.0900   -3.5660 o         1 MOL     -0.726323
     46 H19        -3.0720    3.5340   -0.9130 hn        1 MOL     -0.054304
     47 H20        -4.4860    4.7720   -3.2930 h1        1 MOL      0.047730
     48 H21        -3.0490    3.2210   -4.2240 hc        1 MOL      0.070604
     49 H22        -4.5880    2.3530   -4.1420 hc        1 MOL      0.070604
     50 N4         -5.6530    2.8070   -0.8880 n         1 MOL     -0.109594
     51 C17        -6.8960    2.5370   -0.2020 c3        1 MOL     -0.172907
     52 C18        -7.4370    1.1020   -0.4670 c         1 MOL      0.542286
     53 O9         -8.6190    0.8850   -0.1890 o         1 MOL     -0.606378
     54 H23        -4.8330    2.5000   -0.3800 hn        1 MOL      0.201401
     55 H24        -7.6100    3.2820   -0.5430 h1        1 MOL      0.095834
     56 H25        -6.7270    2.6080    0.8720 h1        1 MOL      0.095834
     57 N5         -6.7350    0.2140   -1.1750 n         1 MOL     -0.293432
     58 C19        -7.2800   -1.1110   -1.6260 c3        1 MOL      0.073681
     59 C20        -7.4920   -2.1430   -0.4830 c         1 MOL      0.407861
     60 O10        -8.3600   -3.0160   -0.6210 o         1 MOL     -0.575563
     61 C21        -6.2460   -1.6530   -2.6300 c3        1 MOL     -0.367549
     62 C22        -4.8090   -1.8420   -2.0600 c         1 MOL      0.718150
     63 O11        -4.4860   -1.5940   -0.8870 o         1 MOL     -0.646211
     64 O12        -3.9950   -2.2530   -2.9790 o         1 MOL     -0.646211
     65 H26        -5.7930    0.5090   -1.4170 hn        1 MOL      0.181181
     66 H27        -8.2240   -0.9520   -2.1510 h1        1 MOL      0.083246
     67 H28        -6.2340   -0.8910   -3.4170 hc        1 MOL      0.117773
     68 H29        -6.5360   -2.6260   -3.0290 hc        1 MOL      0.117773
     69 N6         -6.7350   -2.1040    0.5930 n         1 MOL     -0.140491
     70 C23        -6.8940   -3.0760    1.6770 c3        1 MOL     -0.154508
     71 C24        -5.7660   -4.0640    1.5700 c         1 MOL      0.507436
     72 O13        -5.7890   -5.0720    2.2520 o         1 MOL     -0.593883
     73 H30        -6.0310   -1.3960    0.7740 hn        1 MOL      0.204541
     74 H31        -7.8870   -3.5180    1.6550 h1        1 MOL      0.091506
     75 H32        -6.8010   -2.4990    2.5990 h1        1 MOL      0.091506
     76 N7         -4.7060   -3.7720    0.7790 n         1 MOL     -0.231135
     77 C25        -3.4930   -4.5840    0.5960 c3        1 MOL      0.166379
     78 C26        -2.2900   -3.7250    1.0320 c         1 MOL      0.324315
     79 O14        -2.5030   -2.5450    1.2810 o         1 MOL     -0.501797
     80 C27        -3.2980   -4.9780   -0.8620 c3        1 MOL     -0.103054
     81 C28        -4.6600   -5.4200   -1.4720 c3        1 MOL     -0.345196
     82 C29        -4.4270   -6.0270   -2.8840 c         1 MOL      0.681182
     83 N8         -3.8950   -5.1990   -3.7410 n         1 MOL     -0.743516
     84 O15        -4.6880   -7.1750   -3.2520 o         1 MOL     -0.611963
     85 H33        -4.7350   -2.8690    0.3190 hn        1 MOL      0.154471
     86 H34        -3.5280   -5.4270    1.2890 h1        1 MOL      0.011954
     87 H35        -2.5680   -5.7770   -0.8520 hc        1 MOL      0.051733
     88 H36        -2.8590   -4.1280   -1.3830 hc        1 MOL      0.051733
     89 H37        -5.4080   -4.6320   -1.4060 hc        1 MOL      0.120286
     90 H38        -5.0090   -6.2900   -0.9180 hc        1 MOL      0.120286
     91 H39        -3.7060   -4.2480   -3.4890 hn        1 MOL      0.340177
     92 H40        -3.5050   -5.5190   -4.6120 hn        1 MOL      0.340177
     93 N9         -1.0920   -4.2740    1.2510 n         1 MOL     -0.267303
     94 C30         0.1530   -3.5290    1.4680 c3        1 MOL     -0.020739
     95 C31         1.0660   -3.7380    0.1880 c         1 MOL      0.318261
     96 O16         1.2720   -4.8700   -0.2540 o         1 MOL     -0.518501
     97 C32         0.8620   -3.9630    2.7750 c3        1 MOL      0.146685
     98 C33         2.0360   -3.0610    3.1350 c3        1 MOL     -0.191394
     99 C34        -0.0580   -3.8490    4.0430 c3        1 MOL     -0.191394
    100 H41        -1.1470   -5.2780    1.1570 hn        1 MOL      0.226755
    101 H42        -0.0720   -2.4870    1.7040 h1        1 MOL      0.161545
    102 H43         1.3340   -4.9510    2.7230 hc        1 MOL      0.006855
    103 H44         2.6420   -3.4640    3.9470 hc        1 MOL      0.036478
    104 H45         2.7720   -2.8420    2.3600 hc        1 MOL      0.036478
    105 H46         1.5650   -2.1160    3.4120 hc        1 MOL      0.036478
    106 H47        -0.5930   -2.9000    4.1120 hc        1 MOL      0.036478
    107 H48        -0.8420   -4.6070    3.9540 hc        1 MOL      0.036478
    108 H49         0.4950   -4.1670    4.9280 hc        1 MOL      0.036478
    109 N10         1.5280   -2.6180   -0.4600 n         1 MOL     -0.135401
    110 C35         2.6090   -2.6840   -1.3780 c3        1 MOL      0.141350
    111 C36         3.9910   -2.4070   -0.7290 c         1 MOL      0.289245
    112 O17         4.0740   -2.3810    0.4680 o         1 MOL     -0.319964
    113 C37         2.3210   -1.8130   -2.6000 c3        1 MOL     -0.180814
    114 C38         2.8350   -0.4310   -2.6190 c         1 MOL      0.603924
    115 N11         1.9420    0.4170   -2.1250 n         1 MOL     -0.690671
    116 O18         4.0030   -0.1980   -2.8470 o         1 MOL     -0.554459
    117 H50         1.3550   -1.6940   -0.0640 hn        1 MOL      0.237172
    118 H51         2.6070   -3.7170   -1.7510 h1        1 MOL      0.053397
    119 H52         1.2450   -1.9020   -2.7620 hc        1 MOL      0.046814
    120 H53         2.7990   -2.3490   -3.4310 hc        1 MOL      0.046814
    121 H54         1.0480    0.1920   -1.7080 hn        1 MOL      0.370192
    122 H55         2.1540    1.3940   -2.2820 hn        1 MOL      0.370192
    123 N12         5.1310   -2.2800   -1.4870 n         1 MOL     -0.440969
    124 C39         6.4670   -2.0790   -0.8770 c3        1 MOL      0.187946
    125 C40         6.5340   -0.6750   -0.2670 c         1 MOL      0.389221
    126 O19         7.0980   -0.4340    0.8040 o         1 MOL     -0.526622
    127 C41         7.5730   -2.4020   -1.8720 c3        1 MOL     -0.151508
    128 C42         8.9280   -2.3060   -1.2960 ca        1 MOL     -0.066119
    129 C43         9.5220   -3.3300   -0.5460 ca        1 MOL     -0.022847
    130 C44         9.6490   -1.1590   -1.5110 ca        1 MOL     -0.022847
    131 C45        10.7960   -3.2740   -0.0030 ca        1 MOL     -0.384542
    132 C46        11.0190   -1.0820   -1.0570 ca        1 MOL     -0.384542
    133 C47        11.5530   -2.1260   -0.2440 ca        1 MOL      0.458174
    134 O20        12.8380   -2.0090    0.2240 oh        1 MOL     -0.545252
    135 H56         5.0980   -2.2230   -2.4900 hn        1 MOL      0.261917
    136 H57         6.5950   -2.9020   -0.1680 h1        1 MOL      0.060146
    137 H58         7.5560   -1.6430   -2.6450 hc        1 MOL      0.066950
    138 H59         7.3470   -3.3710   -2.3110 hc        1 MOL      0.066950
    139 H60         8.8290   -4.1110   -0.2730 ha        1 MOL      0.108915
    140 H61         9.2700   -0.4780   -2.2530 ha        1 MOL      0.108915
    141 H62        11.2400   -4.0000    0.6560 ha        1 MOL      0.169586
    142 H63        11.6050   -0.2060   -1.2730 ha        1 MOL      0.169586
    143 H64        13.1180   -1.0960    0.1120 ho        1 MOL      0.372060
    144 N13         5.9180    0.3790   -0.8760 n         1 MOL     -0.137352
    145 C48         5.9520    1.7710   -0.4240 c3        1 MOL     -0.114810
    146 C49         5.1910    1.9950    0.8540 c         1 MOL      0.411389
    147 O21         5.2560    3.0380    1.5760 o         1 MOL     -0.536954
    148 C50         5.6250    2.7580   -1.5910 c3        1 MOL      0.134434
    149 C51         6.8750    3.1790   -2.4210 c3        1 MOL     -0.205755
    150 C52         6.4540    3.7920   -3.6880 c         1 MOL      0.757665
    151 O22         6.1740    4.9500   -3.6220 o         1 MOL     -0.758285
    152 O23         6.3640    3.1330   -4.7290 o         1 MOL     -0.758285
    153 H65         5.5810    0.1400   -1.8030 hn        1 MOL      0.209903
    154 H66         6.9800    2.0480   -0.2000 h1        1 MOL      0.103736
    155 H67         5.1850    3.6290   -1.1190 hc        1 MOL      0.003231
    156 H68         4.9040    2.3660   -2.3040 hc        1 MOL      0.003231
    157 H69         7.4140    2.2550   -2.6390 hc        1 MOL     -0.006790
    158 H70         7.4940    3.8260   -1.7960 hc        1 MOL     -0.006790
    159 N14         4.3930    0.9860    1.1650 n         1 MOL     -0.210449
    160 C53         3.5500    0.9160    2.3660 c3        1 MOL      0.036026
    161 C54         4.1630    0.0080    3.4090 c         1 MOL      0.584284
    162 O24         4.0670    0.3400    4.5280 o         1 MOL     -0.574467
    163 C55         2.1430    0.4270    2.0080 c3        1 MOL     -0.319546
    164 C56         1.3780    1.4530    1.1460 c3        1 MOL      0.488831
    165 C57         0.1860    0.8590    0.5020 c         1 MOL      0.457222
    166 O25        -0.7160    1.6810    0.1400 o         1 MOL     -0.737638
    167 O26         0.0360   -0.3290    0.1480 o         1 MOL     -0.737638
    168 H71         4.2150    0.2350    0.5130 hn        1 MOL      0.039409
    169 H72         3.5260    1.9130    2.8010 h1        1 MOL      0.074233
    170 H73         1.5750    0.1650    2.9030 hc        1 MOL      0.082593
    171 H74         2.3310   -0.4910    1.4540 hc        1 MOL      0.082593
    172 H75         1.9970    1.9210    0.3780 hc        1 MOL     -0.092877
    173 H76         1.0420    2.2770    1.7780 hc        1 MOL     -0.092877
    174 N15         4.8430   -1.1090    3.0050 n         1 MOL     -0.112287
    175 C58         5.6170   -1.8920    3.9520 c3        1 MOL     -0.269234
    176 H77         6.6050   -1.4470    4.0700 h1        1 MOL      0.091282
    177 H78         5.1070   -1.9060    4.9150 h1        1 MOL      0.091282
    178 H79         5.7210   -2.9120    3.5810 h1        1 MOL      0.091282
    179 H80         4.7400   -1.3870    2.0360 hn        1 MOL      0.076437
    180 Ca1        -2.6910   -0.1620    0.1940 Ca        1 MOL      1.714818
    181 O27        -1.8140   -0.2580    2.7490 oh        1 MOL     -0.853180
    182 H81        -1.9130   -1.0370    3.2840 ho        1 MOL      0.401803
    183 H82        -1.2440    0.3200    3.2610 ho        1 MOL      0.401803
    184 O28        -1.6800   -1.7760   -1.8090 oh        1 MOL     -0.853180
    185 H83        -1.0670   -1.7270   -2.5460 ho        1 MOL      0.401803
    186 H84        -2.5160   -2.0200   -2.2080 ho        1 MOL      0.401803
    187 O29        -4.7190   -0.6370    2.0700 oh        1 MOL     -0.853180
    188 H85        -4.4240   -1.1330    2.8380 ho        1 MOL      0.401803
    189 H86        -5.0650    0.1800    2.4380 ho        1 MOL      0.401803
@<TRIPOS>BOND
     1    1    2 1   
     2    1    4 1   
     3    1    5 1   
     4    1    6 1   
     5    2    3 2   
     6    2    7 1   
     7    7    8 1   
     8    7   15 1   
     9    8    9 1   
    10    8   11 1   
    11    8   16 1   
    12    9   10 2   
    13    9   19 1   
    14   11   12 1   
    15   11   17 1   
    16   11   18 1   
    17   12   13 1   
    18   12   14 1   
    19   19   20 1   
    20   19   27 1   
    21   20   21 1   
    22   20   23 1   
    23   20   28 1   
    24   21   22 2   
    25   21   38 1   
    26   23   24 1   
    27   23   25 1   
    28   23   29 1   
    29   24   26 1   
    30   24   30 1   
    31   24   31 1   
    32   25   32 1   
    33   25   33 1   
    34   25   34 1   
    35   26   35 1   
    36   26   36 1   
    37   26   37 1   
    38   38   39 1   
    39   38   46 1   
    40   39   40 1   
    41   39   42 1   
    42   39   47 1   
    43   40   41 2   
    44   40   50 1   
    45   42   43 1   
    46   42   48 1   
    47   42   49 1   
    48   43   44 1   
    49   43   45 1   
    50   50   51 1   
    51   50   54 1   
    52   51   52 1   
    53   51   55 1   
    54   51   56 1   
    55   52   53 2   
    56   52   57 1   
    57   57   58 1   
    58   57   65 1   
    59   58   59 1   
    60   58   61 1   
    61   58   66 1   
    62   59   60 2   
    63   59   69 1   
    64   61   62 1   
    65   61   67 1   
    66   61   68 1   
    67   62   63 1   
    68   62   64 1   
    69   69   70 1   
    70   69   73 1   
    71   70   71 1   
    72   70   74 1   
    73   70   75 1   
    74   71   72 2   
    75   71   76 1   
    76   76   77 1   
    77   76   85 1   
    78   77   78 1   
    79   77   80 1   
    80   77   86 1   
    81   78   79 2   
    82   78   93 1   
    83   80   81 1   
    84   80   87 1   
    85   80   88 1   
    86   81   82 1   
    87   81   89 1   
    88   81   90 1   
    89   82   83 1   
    90   82   84 2   
    91   83   91 1   
    92   83   92 1   
    93   93   94 1   
    94   93  100 1   
    95   94   95 1   
    96   94   97 1   
    97   94  101 1   
    98   95   96 2   
    99   95  109 1   
   100   97   98 1   
   101   97   99 1   
   102   97  102 1   
   103   98  103 1   
   104   98  104 1   
   105   98  105 1   
   106   99  106 1   
   107   99  107 1   
   108   99  108 1   
   109  109  110 1   
   110  109  117 1   
   111  110  111 1   
   112  110  113 1   
   113  110  118 1   
   114  111  112 2   
   115  111  123 1   
   116  113  114 1   
   117  113  119 1   
   118  113  120 1   
   119  114  115 1   
   120  114  116 2   
   121  115  121 1   
   122  115  122 1   
   123  123  124 1   
   124  123  135 1   
   125  124  125 1   
   126  124  127 1   
   127  124  136 1   
   128  125  126 2   
   129  125  144 1   
   130  127  128 1   
   131  127  137 1   
   132  127  138 1   
   133  128  129 ar  
   134  128  130 ar  
   135  129  131 ar  
   136  129  139 1   
   137  130  132 ar  
   138  130  140 1   
   139  131  133 ar  
   140  131  141 1   
   141  132  133 ar  
   142  132  142 1   
   143  133  134 1   
   144  134  143 1   
   145  144  145 1   
   146  144  153 1   
   147  145  146 1   
   148  145  148 1   
   149  145  154 1   
   150  146  147 2   
   151  146  159 1   
   152  148  149 1   
   153  148  155 1   
   154  148  156 1   
   155  149  150 1   
   156  149  157 1   
   157  149  158 1   
   158  150  151 1   
   159  150  152 1   
   160  159  160 1   
   161  159  168 1   
   162  160  161 1   
   163  160  163 1   
   164  160  169 1   
   165  161  162 2   
   166  161  174 1   
   167  163  164 1   
   168  163  170 1   
   169  163  171 1   
   170  164  165 1   
   171  164  172 1   
   172  164  173 1   
   173  165  166 1   
   174  165  167 1   
   175  174  175 1   
   176  174  179 1   
   177  175  176 1   
   178  175  177 1   
   179  175  178 1   
   180  181  182 1   
   181  181  183 1   
   182  184  185 1   
   183  184  186 1   
   184  187  188 1   
   185  187  189 1   
@<TRIPOS>SUBSTRUCTURE
     1 MOL         1 TEMP              0 ****  ****    0 ROOT
