@<TRIPOS>MOLECULE
MOL
  179   176     1     0     0
SMALL
resp


@<TRIPOS>ATOM
      1 C1          1.1790    3.8150    5.5790 c3        1 MOL     -0.345146
      2 C2          0.8570    3.0560    4.2900 c         1 MOL      0.786941
      3 O1          1.6310    3.0050    3.3680 o         1 MOL     -0.615566
      4 H1          0.6480    3.3560    6.4130 hc        1 MOL      0.090247
      5 H2          2.2530    3.7740    5.7670 hc        1 MOL      0.090247
      6 H3          0.8660    4.8540    5.4780 hc        1 MOL      0.090247
      7 N1         -0.4500    2.7200    4.1460 n         1 MOL     -0.770360
      8 C3         -1.0880    2.3040    2.8970 c3        1 MOL      0.437853
      9 C4         -1.2660    3.5210    2.0330 c         1 MOL      0.511319
     10 O2         -2.1910    4.3040    2.3700 o         1 MOL     -0.586489
     11 C5         -2.3630    1.4820    3.1430 c3        1 MOL     -0.215035
     12 C6         -3.0890    1.0660    1.8670 c         1 MOL      0.681772
     13 O3         -2.6060    1.2350    0.7130 o         1 MOL     -0.640602
     14 O4         -4.2440    0.5430    2.0560 o         1 MOL     -0.640602
     15 H4         -1.1140    3.0080    4.8500 hn        1 MOL      0.347785
     16 H5         -0.4100    1.7000    2.2840 h1        1 MOL     -0.152177
     17 H6         -3.0260    2.1010    3.7340 hc        1 MOL      0.051089
     18 H7         -2.0800    0.5550    3.6410 hc        1 MOL      0.051089
     19 N2         -0.4870    3.6710    1.0080 n         1 MOL     -0.117442
     20 C7         -0.3810    4.9370    0.2600 c3        1 MOL     -0.346549
     21 C8         -1.6540    5.2690   -0.5830 c         1 MOL      0.521722
     22 O5         -1.9340    6.4590   -0.8250 o         1 MOL     -0.567011
     23 C9          0.8540    4.7390   -0.6070 c3        1 MOL      0.053947
     24 C10         1.2870    5.9510   -1.4000 c3        1 MOL     -0.018632
     25 C11         2.6650    5.6110   -2.1140 c3        1 MOL     -0.036094
     26 C12         3.2100    6.8810   -2.8610 c3        1 MOL     -0.109172
     27 N3          3.3150    7.9760   -1.8810 n4        1 MOL     -0.305888
     28 H8         -0.0380    2.8450    0.6410 hn        1 MOL      0.134894
     29 H9         -0.2050    5.8100    0.8930 h1        1 MOL      0.151371
     30 H10         0.6150    3.9180   -1.2710 hc        1 MOL      0.075827
     31 H11         1.6500    4.4680    0.0870 hc        1 MOL      0.075827
     32 H12         1.4490    6.7290   -0.6550 hc        1 MOL      0.020114
     33 H13         0.4810    6.2130   -2.0880 hc        1 MOL      0.020114
     34 H14         2.5160    4.8590   -2.8830 hc        1 MOL      0.069494
     35 H15         3.3340    5.2890   -1.3240 hc        1 MOL      0.069494
     36 H16         2.4780    7.1700   -3.6120 hx        1 MOL      0.125892
     37 H17         4.1710    6.6840   -3.3300 hx        1 MOL      0.125892
     38 H18         2.5230    8.0720   -1.2590 hn        1 MOL      0.314303
     39 H19         4.1730    7.8800   -1.3550 hn        1 MOL      0.314303
     40 H20         3.4240    8.8430   -2.3740 hn        1 MOL      0.314303
     41 N4         -2.3430    4.2160   -1.0540 n         1 MOL     -0.270233
     42 C13        -3.4800    4.5120   -2.0060 c3        1 MOL      0.042798
     43 C14        -4.7900    4.1590   -1.3050 c         1 MOL      0.481004
     44 O6         -5.8420    4.4900   -1.8180 o         1 MOL     -0.527129
     45 C15        -3.4150    3.6590   -3.2670 c3        1 MOL     -0.189388
     46 C16        -2.8960    2.2400   -3.0610 c         1 MOL      0.750017
     47 O7         -3.6360    1.3180   -2.6250 o         1 MOL     -0.750247
     48 O8         -1.6690    2.0270   -3.0690 o         1 MOL     -0.750247
     49 H21        -2.0360    3.3100   -0.7550 hn        1 MOL      0.211000
     50 H22        -3.5160    5.5650   -2.2890 h1        1 MOL      0.116186
     51 H23        -2.7100    4.1960   -3.9090 hc        1 MOL      0.049593
     52 H24        -4.3740    3.7010   -3.7890 hc        1 MOL      0.049593
     53 N5         -4.7800    3.5850   -0.0970 n         1 MOL     -0.292298
     54 C17        -5.9550    3.2610    0.7050 c3        1 MOL     -0.037796
     55 C18        -6.7280    1.9080    0.4000 c         1 MOL      0.427913
     56 O9         -7.9910    1.8540    0.5780 o         1 MOL     -0.543494
     57 H25        -3.9380    3.1500    0.2810 hn        1 MOL      0.195322
     58 H26        -6.6680    4.0760    0.8220 h1        1 MOL      0.085062
     59 H27        -5.5890    3.0470    1.7070 h1        1 MOL      0.085062
     60 N6         -6.0880    0.8450   -0.1840 n         1 MOL     -0.030002
     61 C19        -6.7700   -0.3490   -0.5630 c3        1 MOL     -0.067372
     62 C20        -6.9870   -1.4080    0.5200 c         1 MOL      0.374090
     63 O10        -7.9550   -2.1690    0.5280 o         1 MOL     -0.529900
     64 C21        -6.1770   -0.9570   -1.8160 c3        1 MOL     -0.183752
     65 C22        -5.1500   -2.0180   -1.4440 c         1 MOL      0.433338
     66 N7         -5.4500   -3.2680   -1.5640 n         1 MOL     -0.638707
     67 O11        -4.0190   -1.7290   -0.9440 o         1 MOL     -0.556144
     68 H28        -5.0820    0.8540   -0.2650 hn        1 MOL     -0.005853
     69 H29        -7.7830   -0.1310   -0.9160 h1        1 MOL      0.127872
     70 H30        -5.8490   -0.1620   -2.4920 hc        1 MOL      0.089760
     71 H31        -6.9570   -1.5230   -2.3120 hc        1 MOL      0.089760
     72 H32        -6.3290   -3.5300   -1.9950 hn        1 MOL      0.364727
     73 H33        -4.7990   -3.9940   -1.2910 hn        1 MOL      0.364727
     74 N8         -6.1110   -1.3560    1.5310 n         1 MOL     -0.070689
     75 C23        -6.0370   -2.3560    2.5660 c3        1 MOL     -0.156480
     76 C24        -4.7110   -3.1470    2.6700 c         1 MOL      0.542321
     77 O12        -4.6590   -4.0740    3.5130 o         1 MOL     -0.579160
     78 H34        -5.3980   -0.6410    1.5740 hn        1 MOL      0.146904
     79 H35        -6.7700   -3.1370    2.3920 h1        1 MOL      0.099755
     80 H36        -6.1780   -1.9560    3.5650 h1        1 MOL      0.099755
     81 N9         -3.6610   -3.0010    1.8380 n         1 MOL     -0.327272
     82 C25        -2.3290   -3.6140    1.9480 c3        1 MOL      0.060563
     83 C26        -1.1870   -2.7150    1.4580 c         1 MOL      0.715690
     84 O13        -1.4500   -1.7490    0.7470 o         1 MOL     -0.672325
     85 C27        -2.2790   -5.0450    1.4090 c3        1 MOL     -0.173659
     86 C28        -2.5740   -5.3310   -0.0560 ca        1 MOL      0.074700
     87 C29        -1.6070   -5.1520   -1.1080 ca        1 MOL     -0.141367
     88 C30        -3.8880   -5.8030   -0.3650 ca        1 MOL     -0.141367
     89 C31        -2.0180   -5.6050   -2.4060 ca        1 MOL     -0.269500
     90 C32        -4.3030   -5.9970   -1.6980 ca        1 MOL     -0.269500
     91 C33        -3.3380   -5.9780   -2.7730 ca        1 MOL      0.334546
     92 O14        -3.6330   -6.5180   -3.9410 oh        1 MOL     -0.464791
     93 H37        -3.8180   -2.4580    1.0020 hn        1 MOL      0.206048
     94 H38        -2.1060   -3.6510    3.0120 h1        1 MOL      0.052074
     95 H39        -3.0400   -5.5240    2.0390 hc        1 MOL      0.071411
     96 H40        -1.3280   -5.5330    1.6480 hc        1 MOL      0.071411
     97 H41        -0.6200   -4.8460   -0.7620 ha        1 MOL      0.145684
     98 H42        -4.4960   -5.8470    0.5300 ha        1 MOL      0.145684
     99 H43        -1.3470   -5.5030   -3.2430 ha        1 MOL      0.130419
    100 H44        -5.3130   -6.3020   -1.9200 ha        1 MOL      0.130419
    101 H45        -2.8620   -6.7110   -4.4940 ho        1 MOL      0.373804
    102 N10         0.0200   -3.0640    1.8030 n         1 MOL     -0.512354
    103 C34         1.2360   -2.4610    1.3140 c3        1 MOL     -0.019760
    104 C35         2.2040   -3.4320    0.6110 c         1 MOL      0.523680
    105 O15         2.0630   -4.6410    0.7460 o         1 MOL     -0.525043
    106 C36         2.0660   -1.7000    2.4360 c3        1 MOL      0.116480
    107 C37         2.4650   -2.5370    3.5820 c3        1 MOL      0.023455
    108 C38         1.3030   -0.5870    3.1080 c3        1 MOL     -0.496368
    109 C39         3.8130   -2.0920    4.2230 c3        1 MOL     -0.299676
    110 H46         0.0810   -3.8470    2.4420 hn        1 MOL      0.297859
    111 H47         1.0220   -1.7030    0.5580 h1        1 MOL      0.058320
    112 H48         3.0000   -1.3560    1.9790 hc        1 MOL     -0.032169
    113 H49         2.6300   -3.5680    3.2560 hc        1 MOL      0.028515
    114 H50         1.7350   -2.6860    4.3690 hc        1 MOL      0.028515
    115 H51         0.8210    0.0520    2.3610 hc        1 MOL      0.151351
    116 H52         0.4160   -0.9970    3.5840 hc        1 MOL      0.151351
    117 H53         1.9420    0.0460    3.7180 hc        1 MOL      0.151351
    118 H54         3.9130   -2.7040    5.1160 hc        1 MOL      0.071990
    119 H55         4.6600   -2.0750    3.5550 hc        1 MOL      0.071990
    120 H56         3.7240   -1.0630    4.5720 hc        1 MOL      0.071990
    121 N11         3.0580   -2.9060   -0.2900 n         1 MOL     -0.324513
    122 C40         4.2470   -3.4980   -0.8360 c3        1 MOL      0.042389
    123 C41         5.5200   -3.0350   -0.1200 c         1 MOL      0.505460
    124 O16         5.4450   -2.0820    0.6520 o         1 MOL     -0.409482
    125 C42         4.2630   -3.2230   -2.3260 c3        1 MOL     -0.185521
    126 O17         4.3710   -1.8480   -2.6160 oh        1 MOL     -0.475622
    127 H57         2.8710   -1.9240   -0.4280 hn        1 MOL      0.212753
    128 H58         4.1260   -4.5620   -0.6590 h1        1 MOL      0.067788
    129 H59         3.3780   -3.6070   -2.8220 h1        1 MOL      0.111917
    130 H60         5.1230   -3.7450   -2.7610 h1        1 MOL      0.111917
    131 H61         3.7360   -1.5980   -3.2880 ho        1 MOL      0.409957
    132 N12         6.6090   -3.5800   -0.5530 n         1 MOL     -0.501741
    133 C43         7.9670   -3.1440   -0.1870 c3        1 MOL      0.130987
    134 C44         8.1760   -1.7540   -0.5510 c         1 MOL      0.588764
    135 O18         8.8470   -1.0440    0.1930 o         1 MOL     -0.533926
    136 C45         9.0220   -4.0380   -0.8830 c3        1 MOL     -0.306011
    137 H62         6.5830   -4.3660   -1.1880 hn        1 MOL      0.315760
    138 H63         8.0720   -3.2520    0.8950 h1        1 MOL      0.084489
    139 H64         9.9540   -3.9960   -0.3150 hc        1 MOL      0.096899
    140 H65         8.6210   -5.0500   -0.9540 hc        1 MOL      0.096899
    141 H66         9.1820   -3.8460   -1.9520 hc        1 MOL      0.096899
    142 N13         7.5710   -1.2980   -1.6680 n         1 MOL     -0.561393
    143 C46         7.6770    0.0960   -2.0420 c3        1 MOL      0.231409
    144 C47         6.8700    0.9670   -1.1020 c         1 MOL      0.346518
    145 O19         7.4770    1.8230   -0.5050 o         1 MOL     -0.480564
    146 C48         6.9670    0.2030   -3.4570 c3        1 MOL     -0.207660
    147 H67         6.8850   -1.7680   -2.2440 hn        1 MOL      0.313241
    148 H68         8.6480    0.5590   -2.1630 h1        1 MOL      0.057706
    149 H69         5.9240   -0.0120   -3.2460 hc        1 MOL      0.041396
    150 H70         7.0700    1.2230   -3.8410 hc        1 MOL      0.041396
    151 H71         7.4010   -0.5460   -4.1220 hc        1 MOL      0.041396
    152 N14         5.5600    0.7370   -0.9230 n         1 MOL     -0.206275
    153 C49         4.8710    1.4670    0.1370 c3        1 MOL     -0.200948
    154 C50         5.5820    1.4790    1.5310 c         1 MOL      0.474105
    155 O20         5.5640    2.4920    2.1700 o         1 MOL     -0.529470
    156 C51         3.3710    1.1100    0.1330 c3        1 MOL     -0.156290
    157 C52         2.7780    1.4530   -1.1850 c3        1 MOL      0.033837
    158 C53         1.3780    0.8920   -1.3500 c         1 MOL      0.860440
    159 O21         0.3690    1.3800   -0.7460 o         1 MOL     -0.792253
    160 O22         1.2000   -0.1990   -1.9450 o         1 MOL     -0.792253
    161 H72         5.0960   -0.0420   -1.3580 hn        1 MOL      0.276475
    162 H73         4.9180    2.5310   -0.1080 h1        1 MOL      0.103716
    163 H74         2.7940    1.6600    0.8840 hc        1 MOL      0.138481
    164 H75         3.3150    0.0360    0.2600 hc        1 MOL      0.138481
    165 H76         3.3830    1.0710   -2.0070 hc        1 MOL     -0.079667
    166 H77         2.6770    2.5360   -1.2990 hc        1 MOL     -0.079667
    167 N15         6.2700    0.4020    1.8830 n         1 MOL     -0.028577
    168 C54         7.1550    0.5070    3.0570 c3        1 MOL     -0.309715
    169 H78         8.1680    0.7400    2.7280 h1        1 MOL      0.113103
    170 H79         6.7960    1.3000    3.7140 h1        1 MOL      0.113103
    171 H80         7.1580   -0.4400    3.5970 h1        1 MOL      0.113103
    172 H81         6.2600   -0.4730    1.3780 hn        1 MOL      0.135079
    173 Ca1        -1.7430   -0.1320   -1.2290 Ca        1 MOL      1.790893
    174 O23        -2.7520   -0.8500   -3.7900 oh        1 MOL     -0.867966
    175 H82        -2.7100   -1.0420   -4.7330 ho        1 MOL      0.409895
    176 H83        -3.4860   -0.2510   -3.7060 ho        1 MOL      0.409895
    177 O24        -0.2160   -2.2390   -1.9130 oh        1 MOL     -0.867966
    178 H84        -0.0710   -2.9940   -2.4880 ho        1 MOL      0.409895
    179 H85         0.5240   -1.6510   -2.0860 ho        1 MOL      0.409895
@<TRIPOS>BOND
     1    1    2 1   
     2    1    4 1   
     3    1    5 1   
     4    1    6 1   
     5    2    3 2   
     6    2    7 1   
     7    7    8 1   
     8    7   15 1   
     9    8    9 1   
    10    8   11 1   
    11    8   16 1   
    12    9   10 2   
    13    9   19 1   
    14   11   12 1   
    15   11   17 1   
    16   11   18 1   
    17   12   13 1   
    18   12   14 1   
    19   19   20 1   
    20   19   28 1   
    21   20   21 1   
    22   20   23 1   
    23   20   29 1   
    24   21   22 2   
    25   21   41 1   
    26   23   24 1   
    27   23   30 1   
    28   23   31 1   
    29   24   25 1   
    30   24   32 1   
    31   24   33 1   
    32   25   26 1   
    33   25   34 1   
    34   25   35 1   
    35   26   27 1   
    36   26   36 1   
    37   26   37 1   
    38   27   38 1   
    39   27   39 1   
    40   27   40 1   
    41   41   42 1   
    42   41   49 1   
    43   42   43 1   
    44   42   45 1   
    45   42   50 1   
    46   43   44 2   
    47   43   53 1   
    48   45   46 1   
    49   45   51 1   
    50   45   52 1   
    51   46   47 1   
    52   46   48 1   
    53   53   54 1   
    54   53   57 1   
    55   54   55 1   
    56   54   58 1   
    57   54   59 1   
    58   55   56 2   
    59   55   60 1   
    60   60   61 1   
    61   60   68 1   
    62   61   62 1   
    63   61   64 1   
    64   61   69 1   
    65   62   63 2   
    66   62   74 1   
    67   64   65 1   
    68   64   70 1   
    69   64   71 1   
    70   65   66 1   
    71   65   67 2   
    72   66   72 1   
    73   66   73 1   
    74   74   75 1   
    75   74   78 1   
    76   75   76 1   
    77   75   79 1   
    78   75   80 1   
    79   76   77 2   
    80   76   81 1   
    81   81   82 1   
    82   81   93 1   
    83   82   83 1   
    84   82   85 1   
    85   82   94 1   
    86   83   84 2   
    87   83  102 1   
    88   85   86 1   
    89   85   95 1   
    90   85   96 1   
    91   86   87 ar  
    92   86   88 ar  
    93   87   89 ar  
    94   87   97 1   
    95   88   90 ar  
    96   88   98 1   
    97   89   91 ar  
    98   89   99 1   
    99   90   91 ar  
   100   90  100 1   
   101   91   92 1   
   102   92  101 1   
   103  102  103 1   
   104  102  110 1   
   105  103  104 1   
   106  103  106 1   
   107  103  111 1   
   108  104  105 2   
   109  104  121 1   
   110  106  107 1   
   111  106  108 1   
   112  106  112 1   
   113  107  109 1   
   114  107  113 1   
   115  107  114 1   
   116  108  115 1   
   117  108  116 1   
   118  108  117 1   
   119  109  118 1   
   120  109  119 1   
   121  109  120 1   
   122  121  122 1   
   123  121  127 1   
   124  122  123 1   
   125  122  125 1   
   126  122  128 1   
   127  123  124 2   
   128  123  132 1   
   129  125  126 1   
   130  125  129 1   
   131  125  130 1   
   132  126  131 1   
   133  132  133 1   
   134  132  137 1   
   135  133  134 1   
   136  133  136 1   
   137  133  138 1   
   138  134  135 2   
   139  134  142 1   
   140  136  139 1   
   141  136  140 1   
   142  136  141 1   
   143  142  143 1   
   144  142  147 1   
   145  143  144 1   
   146  143  146 1   
   147  143  148 1   
   148  144  145 2   
   149  144  152 1   
   150  146  149 1   
   151  146  150 1   
   152  146  151 1   
   153  152  153 1   
   154  152  161 1   
   155  153  154 1   
   156  153  156 1   
   157  153  162 1   
   158  154  155 2   
   159  154  167 1   
   160  156  157 1   
   161  156  163 1   
   162  156  164 1   
   163  157  158 1   
   164  157  165 1   
   165  157  166 1   
   166  158  159 1   
   167  158  160 1   
   168  167  168 1   
   169  167  172 1   
   170  168  169 1   
   171  168  170 1   
   172  168  171 1   
   173  174  175 1   
   174  174  176 1   
   175  177  178 1   
   176  177  179 1   
@<TRIPOS>SUBSTRUCTURE
     1 MOL         1 TEMP              0 ****  ****    0 ROOT
