@<TRIPOS>MOLECULE
MOL
  186   183     1     0     0
SMALL
resp


@<TRIPOS>ATOM
      1 C1         -0.1440   -1.6700    6.2340 c3        1 MOL     -0.276178
      2 C2          0.3870   -1.8130    4.7580 c         1 MOL      0.841027
      3 O1         -0.3080   -2.3670    3.9290 o         1 MOL     -0.647938
      4 H1          0.3170   -0.8010    6.7030 hc        1 MOL      0.059464
      5 H2         -1.2270   -1.5430    6.2200 hc        1 MOL      0.059464
      6 H3          0.1090   -2.5660    6.8010 hc        1 MOL      0.059464
      7 N1          1.5890   -1.3920    4.4570 n         1 MOL     -0.784267
      8 C3          2.2590   -1.4670    3.1280 c3        1 MOL      0.611627
      9 C4          2.5410   -3.0040    2.8880 c         1 MOL      0.300480
     10 O2          3.2140   -3.6500    3.7590 o         1 MOL     -0.541247
     11 C5          3.6150   -0.7320    3.1060 c3        1 MOL     -0.441400
     12 C6          4.3250   -0.6220    1.7570 c         1 MOL      0.923357
     13 O3          5.5370   -0.3120    1.8380 o         1 MOL     -0.715646
     14 O4          3.7060   -0.7540    0.7060 o         1 MOL     -0.715646
     15 H4          2.0850   -0.9560    5.2200 hn        1 MOL      0.322804
     16 H5          1.6140   -1.0180    2.3790 h1        1 MOL     -0.100139
     17 H6          4.2790   -1.3040    3.7560 hc        1 MOL      0.081429
     18 H7          3.5020    0.2900    3.4520 hc        1 MOL      0.081429
     19 N2          2.2340   -3.4900    1.6560 n         1 MOL     -0.035883
     20 C7          2.2060   -4.8800    1.2420 c3        1 MOL     -0.095390
     21 C8          3.3070   -5.1850    0.2790 c         1 MOL      0.561321
     22 O5          4.2550   -5.9420    0.6010 o         1 MOL     -0.598752
     23 C9          0.7690   -5.4060    0.7880 c3        1 MOL      0.186489
     24 C10        -0.2820   -5.0030    1.8430 c3        1 MOL      0.206320
     25 C11         0.7720   -6.9390    0.5460 c3        1 MOL     -0.350713
     26 C12        -1.7130   -5.3950    1.5080 c3        1 MOL     -0.140063
     27 H8          1.7810   -2.8230    1.0490 hn        1 MOL     -0.001495
     28 H9          2.4100   -5.4200    2.1650 h1        1 MOL      0.038865
     29 H10         0.4920   -4.9550   -0.1670 hc        1 MOL     -0.048730
     30 H11        -0.3400   -3.9310    2.0240 hc        1 MOL     -0.030767
     31 H12        -0.0450   -5.5470    2.7590 hc        1 MOL     -0.030767
     32 H13         1.5340   -7.0320   -0.2260 hc        1 MOL      0.070232
     33 H14         1.0690   -7.5450    1.3990 hc        1 MOL      0.070232
     34 H15        -0.1830   -7.3400    0.2030 hc        1 MOL      0.070232
     35 H16        -2.3960   -5.0470    2.2930 hc        1 MOL      0.017806
     36 H17        -2.0970   -4.8670    0.6390 hc        1 MOL      0.017806
     37 H18        -1.8780   -6.4750    1.4430 hc        1 MOL      0.017806
     38 N3          3.3000   -4.4880   -0.8140 n         1 MOL     -0.374861
     39 C13         4.3830   -4.6860   -1.8440 c3        1 MOL     -0.153044
     40 C14         5.7780   -4.0420   -1.4720 c         1 MOL      0.542783
     41 O6          6.7480   -4.6050   -1.9440 o         1 MOL     -0.570750
     42 C15         4.0150   -4.2190   -3.3180 c3        1 MOL     -0.136852
     43 C16         3.5480   -2.7640   -3.4630 c         1 MOL      0.785856
     44 O7          2.9630   -2.4810   -4.5830 o         1 MOL     -0.761919
     45 O8          3.4320   -2.0180   -2.5260 o         1 MOL     -0.761919
     46 H19         2.4480   -3.9630   -1.0070 hn        1 MOL      0.372634
     47 H20         4.5710   -5.7530   -1.7730 h1        1 MOL      0.122297
     48 H21         3.2240   -4.8330   -3.7540 hc        1 MOL      0.046026
     49 H22         4.8280   -4.4070   -4.0100 hc        1 MOL      0.046026
     50 N4          5.9350   -3.1390   -0.5160 n         1 MOL     -0.007667
     51 C17         7.2330   -2.7390   -0.0900 c3        1 MOL     -0.200835
     52 C18         7.6380   -1.5420   -0.9750 c         1 MOL      0.568513
     53 O9          8.5970   -1.6090   -1.7550 o         1 MOL     -0.595463
     54 H23         5.1320   -2.6880   -0.1170 hn        1 MOL      0.056451
     55 H24         8.0070   -3.4990   -0.1040 h1        1 MOL      0.082934
     56 H25         7.1400   -2.3280    0.9250 h1        1 MOL      0.082934
     57 N5          6.9600   -0.4420   -0.9640 n         1 MOL     -0.415268
     58 C19         7.4040    0.7830   -1.5860 c3        1 MOL      0.199296
     59 C20         7.4070    2.0210   -0.7030 c         1 MOL      0.372142
     60 O10         7.8970    3.0620   -1.2090 o         1 MOL     -0.547982
     61 C21         6.5240    0.9910   -2.8540 c3        1 MOL     -0.214647
     62 C22         5.1350    1.4180   -2.5640 c         1 MOL      0.809323
     63 O11         4.7700    1.6500   -1.3870 o         1 MOL     -0.801464
     64 O12         4.1700    1.2260   -3.3650 o         1 MOL     -0.801464
     65 H26         6.2220   -0.3210   -0.2800 hn        1 MOL      0.151126
     66 H27         8.4320    0.7280   -1.9310 h1        1 MOL      0.055092
     67 H28         6.5930    0.1270   -3.5170 hc        1 MOL      0.064735
     68 H29         7.0260    1.7480   -3.4560 hc        1 MOL      0.064735
     69 N6          6.9400    1.9090    0.5590 n         1 MOL     -0.276962
     70 C23         7.0340    3.0400    1.5640 c3        1 MOL     -0.089903
     71 C24         5.7390    3.9150    1.7720 c         1 MOL      0.510292
     72 O13         5.6770    4.7280    2.7110 o         1 MOL     -0.601547
     73 H30         6.5310    1.0810    0.9830 hn        1 MOL      0.280607
     74 H31         7.8790    3.6210    1.2010 h1        1 MOL      0.067812
     75 H32         7.3580    2.5370    2.4730 h1        1 MOL      0.067812
     76 N7          4.6870    3.6820    0.9790 n         1 MOL     -0.212264
     77 C25         3.3960    4.3380    0.9590 c3        1 MOL      0.038099
     78 C26         2.2960    3.2670    0.9890 c         1 MOL      0.639246
     79 O14         2.5470    2.1010    0.6490 o         1 MOL     -0.675921
     80 C27         3.2790    5.3150   -0.2230 c3        1 MOL     -0.056146
     81 C28         4.2230    6.5280   -0.0120 c3        1 MOL     -0.106994
     82 C29         4.1190    7.6310   -1.0280 c         1 MOL      0.633039
     83 N8          4.8080    8.7790   -0.8690 n         1 MOL     -0.767358
     84 O15         3.5120    7.4370   -2.0870 o         1 MOL     -0.532827
     85 H33         4.7590    2.8660    0.3820 hn        1 MOL      0.221833
     86 H34         3.2760    4.9000    1.8820 h1        1 MOL      0.044099
     87 H35         2.2410    5.6380   -0.3090 hc        1 MOL      0.020687
     88 H36         3.4000    4.8740   -1.2180 hc        1 MOL      0.020687
     89 H37         5.2350    6.1140    0.0760 hc        1 MOL      0.034130
     90 H38         4.0200    7.0230    0.9390 hc        1 MOL      0.034130
     91 H39         5.2070    9.0210    0.0280 hn        1 MOL      0.333362
     92 H40         4.7240    9.5830   -1.4600 hn        1 MOL      0.333362
     93 N9          1.0680    3.7030    1.3240 n         1 MOL     -0.566870
     94 C30        -0.0480    2.7940    1.6100 c3        1 MOL      0.064735
     95 C31        -1.2510    3.2630    0.7280 c         1 MOL      0.467526
     96 O16        -1.8570    4.2740    0.9630 o         1 MOL     -0.569113
     97 C32        -0.2820    2.6840    3.1350 c3        1 MOL      0.177494
     98 C33        -1.5640    1.8450    3.3990 c3        1 MOL     -0.229343
     99 C34         0.8670    2.1710    4.0190 c3        1 MOL     -0.229343
    100 H41         0.9430    4.6880    1.5180 hn        1 MOL      0.314820
    101 H42         0.1460    1.7800    1.2610 h1        1 MOL      0.155549
    102 H43        -0.4700    3.6850    3.5110 hc        1 MOL     -0.027413
    103 H44        -1.3780    0.7790    3.2480 hc        1 MOL      0.042638
    104 H45        -1.8850    2.0010    4.4300 hc        1 MOL      0.042638
    105 H46        -2.4500    2.0440    2.7950 hc        1 MOL      0.042638
    106 H47         1.7690    2.6810    3.6960 hc        1 MOL      0.042638
    107 H48         0.7660    2.4290    5.0710 hc        1 MOL      0.042638
    108 H49         0.9830    1.0840    3.9430 hc        1 MOL      0.042638
    109 N10        -1.5970    2.4330   -0.2120 n         1 MOL     -0.194649
    110 C35        -2.8390    2.5430   -1.0060 c3        1 MOL      0.039587
    111 C36        -4.0200    2.3020   -0.0810 c         1 MOL      0.390481
    112 O17        -4.0480    1.6140    0.9070 o         1 MOL     -0.289481
    113 C37        -2.7680    1.5570   -2.1570 c3        1 MOL     -0.284186
    114 C38        -3.7660    1.9050   -3.3300 c         1 MOL      0.675413
    115 N11        -3.4350    2.8820   -4.1220 n         1 MOL     -0.777350
    116 O18        -4.8600    1.3770   -3.4270 o         1 MOL     -0.556260
    117 H50        -1.0690    1.5780   -0.3220 hn        1 MOL      0.129693
    118 H51        -3.0130    3.4920   -1.5100 h1        1 MOL      0.035846
    119 H52        -2.8760    0.5440   -1.7620 hc        1 MOL      0.123508
    120 H53        -1.7710    1.3950   -2.5650 hc        1 MOL      0.123508
    121 H54        -2.4800    3.2120   -4.1360 hn        1 MOL      0.369586
    122 H55        -4.0950    3.1250   -4.8330 hn        1 MOL      0.369586
    123 N12        -5.1830    2.6600   -0.6610 n         1 MOL     -0.501485
    124 C39        -6.5230    2.3210   -0.0830 c3        1 MOL      0.237249
    125 C40        -6.8150    0.8620    0.0410 c         1 MOL      0.648649
    126 O19        -7.3330    0.4500    1.0160 o         1 MOL     -0.540768
    127 C41        -7.6680    3.1410   -0.7880 c3        1 MOL     -0.210097
    128 C42        -9.0040    2.6260   -0.4300 ca        1 MOL      0.056981
    129 C43        -9.7280    2.9820    0.7120 ca        1 MOL     -0.168611
    130 C44        -9.6230    1.7830   -1.4050 ca        1 MOL     -0.168611
    131 C45       -10.9880    2.4470    0.9450 ca        1 MOL     -0.266957
    132 C46       -10.8980    1.2600   -1.1930 ca        1 MOL     -0.266957
    133 C47       -11.5950    1.5540    0.0180 ca        1 MOL      0.352540
    134 O20       -12.8360    1.0390    0.3180 oh        1 MOL     -0.526939
    135 H56        -5.0910    3.2310   -1.4940 hn        1 MOL      0.273707
    136 H57        -6.5120    2.7060    0.9390 h1        1 MOL      0.010132
    137 H58        -7.6380    3.0150   -1.8730 hc        1 MOL      0.071362
    138 H59        -7.5850    4.2160   -0.6100 hc        1 MOL      0.071362
    139 H60        -9.1250    3.5260    1.4170 ha        1 MOL      0.140714
    140 H61        -9.1490    1.4980   -2.3330 ha        1 MOL      0.140714
    141 H62       -11.3480    2.5160    1.9590 ha        1 MOL      0.146041
    142 H63       -11.4590    0.6980   -1.9290 ha        1 MOL      0.146041
    143 H64       -13.0570    0.3520   -0.3210 ho        1 MOL      0.379346
    144 N13        -6.3380    0.0930   -0.9750 n         1 MOL     -0.477864
    145 C48        -6.4810   -1.4000   -1.0680 c3        1 MOL      0.021008
    146 C49        -5.5390   -2.0780   -0.0300 c         1 MOL      0.285232
    147 O21        -5.8630   -3.1140    0.5450 o         1 MOL     -0.497681
    148 C50        -6.1220   -1.8030   -2.5710 c3        1 MOL      0.075944
    149 C51        -6.5050   -3.3100   -2.6470 c3        1 MOL     -0.319508
    150 C52        -6.4780   -3.9600   -4.0350 c         1 MOL      0.742464
    151 O22        -6.8020   -5.1980   -4.2000 o         1 MOL     -0.754582
    152 O23        -6.0760   -3.3310   -5.0460 o         1 MOL     -0.754582
    153 H65        -5.8880    0.4960   -1.7810 hn        1 MOL      0.231465
    154 H66        -7.5250   -1.6540   -0.9030 h1        1 MOL      0.098934
    155 H67        -5.0570   -1.6930   -2.7430 hc        1 MOL      0.027191
    156 H68        -6.6860   -1.1420   -3.2190 hc        1 MOL      0.027191
    157 H69        -7.5020   -3.3870   -2.2210 hc        1 MOL      0.054702
    158 H70        -5.8930   -3.8990   -1.9700 hc        1 MOL      0.054702
    159 N14        -4.4730   -1.4040    0.4120 n         1 MOL     -0.023033
    160 C53        -3.5840   -1.8460    1.4780 c3        1 MOL     -0.033534
    161 C54        -4.1010   -1.5410    2.9080 c         1 MOL      0.324367
    162 O24        -4.1150   -2.4370    3.7560 o         1 MOL     -0.510141
    163 C55        -2.1950   -1.1970    1.1840 c3        1 MOL      0.205387
    164 C56        -1.4580   -1.7010   -0.1080 c3        1 MOL     -0.153921
    165 C57        -0.0440   -1.1300   -0.2640 c         1 MOL      0.883863
    166 O25         0.9250   -1.8940   -0.2750 o         1 MOL     -0.760607
    167 O26         0.1780    0.0430   -0.5920 o         1 MOL     -0.760607
    168 H71        -4.2630   -0.4890    0.0290 hn        1 MOL      0.064999
    169 H72        -3.5090   -2.9340    1.3920 h1        1 MOL      0.139534
    170 H73        -1.5020   -1.3730    2.0100 hc        1 MOL     -0.049058
    171 H74        -2.2400   -0.1240    0.9850 hc        1 MOL     -0.049058
    172 H75        -2.0490   -1.5390   -1.0170 hc        1 MOL      0.021285
    173 H76        -1.4900   -2.7830   -0.0060 hc        1 MOL      0.021285
    174 N15        -4.8880   -0.4470    3.0990 n         1 MOL      0.025072
    175 C58        -5.5580    0.0190    4.3400 c3        1 MOL     -0.261418
    176 H77        -4.9860    0.8360    4.7770 h1        1 MOL      0.092008
    177 H78        -6.5630    0.3670    4.1010 h1        1 MOL      0.092008
    178 H79        -5.6180   -0.8040    5.0520 h1        1 MOL      0.092008
    179 H80        -4.9760    0.1360    2.2860 hn        1 MOL      0.013500
    180 Ca1         2.5660    0.1580   -1.2900 Ca        1 MOL      1.792710
    181 O27         1.2090   -0.6200   -3.8500 oh        1 MOL     -0.893251
    182 H81         1.7320   -1.4210   -3.9050 ho        1 MOL      0.432749
    183 H82         1.5190   -0.0750   -4.5750 ho        1 MOL      0.432749
    184 O28         2.2000    2.6100   -2.2650 oh        1 MOL     -0.893251
    185 H83         2.2130    3.1750   -3.0360 ho        1 MOL      0.432749
    186 H84         3.0850    2.6720   -1.8970 ho        1 MOL      0.432749
@<TRIPOS>BOND
     1    1    2 1   
     2    1    4 1   
     3    1    5 1   
     4    1    6 1   
     5    2    3 2   
     6    2    7 1   
     7    7    8 1   
     8    7   15 1   
     9    8    9 1   
    10    8   11 1   
    11    8   16 1   
    12    9   10 2   
    13    9   19 1   
    14   11   12 1   
    15   11   17 1   
    16   11   18 1   
    17   12   13 1   
    18   12   14 1   
    19   19   20 1   
    20   19   27 1   
    21   20   21 1   
    22   20   23 1   
    23   20   28 1   
    24   21   22 2   
    25   21   38 1   
    26   23   24 1   
    27   23   25 1   
    28   23   29 1   
    29   24   26 1   
    30   24   30 1   
    31   24   31 1   
    32   25   32 1   
    33   25   33 1   
    34   25   34 1   
    35   26   35 1   
    36   26   36 1   
    37   26   37 1   
    38   38   39 1   
    39   38   46 1   
    40   39   40 1   
    41   39   42 1   
    42   39   47 1   
    43   40   41 2   
    44   40   50 1   
    45   42   43 1   
    46   42   48 1   
    47   42   49 1   
    48   43   44 1   
    49   43   45 1   
    50   50   51 1   
    51   50   54 1   
    52   51   52 1   
    53   51   55 1   
    54   51   56 1   
    55   52   53 2   
    56   52   57 1   
    57   57   58 1   
    58   57   65 1   
    59   58   59 1   
    60   58   61 1   
    61   58   66 1   
    62   59   60 2   
    63   59   69 1   
    64   61   62 1   
    65   61   67 1   
    66   61   68 1   
    67   62   63 1   
    68   62   64 1   
    69   69   70 1   
    70   69   73 1   
    71   70   71 1   
    72   70   74 1   
    73   70   75 1   
    74   71   72 2   
    75   71   76 1   
    76   76   77 1   
    77   76   85 1   
    78   77   78 1   
    79   77   80 1   
    80   77   86 1   
    81   78   79 2   
    82   78   93 1   
    83   80   81 1   
    84   80   87 1   
    85   80   88 1   
    86   81   82 1   
    87   81   89 1   
    88   81   90 1   
    89   82   83 1   
    90   82   84 2   
    91   83   91 1   
    92   83   92 1   
    93   93   94 1   
    94   93  100 1   
    95   94   95 1   
    96   94   97 1   
    97   94  101 1   
    98   95   96 2   
    99   95  109 1   
   100   97   98 1   
   101   97   99 1   
   102   97  102 1   
   103   98  103 1   
   104   98  104 1   
   105   98  105 1   
   106   99  106 1   
   107   99  107 1   
   108   99  108 1   
   109  109  110 1   
   110  109  117 1   
   111  110  111 1   
   112  110  113 1   
   113  110  118 1   
   114  111  112 2   
   115  111  123 1   
   116  113  114 1   
   117  113  119 1   
   118  113  120 1   
   119  114  115 1   
   120  114  116 2   
   121  115  121 1   
   122  115  122 1   
   123  123  124 1   
   124  123  135 1   
   125  124  125 1   
   126  124  127 1   
   127  124  136 1   
   128  125  126 2   
   129  125  144 1   
   130  127  128 1   
   131  127  137 1   
   132  127  138 1   
   133  128  129 ar  
   134  128  130 ar  
   135  129  131 ar  
   136  129  139 1   
   137  130  132 ar  
   138  130  140 1   
   139  131  133 ar  
   140  131  141 1   
   141  132  133 ar  
   142  132  142 1   
   143  133  134 1   
   144  134  143 1   
   145  144  145 1   
   146  144  153 1   
   147  145  146 1   
   148  145  148 1   
   149  145  154 1   
   150  146  147 2   
   151  146  159 1   
   152  148  149 1   
   153  148  155 1   
   154  148  156 1   
   155  149  150 1   
   156  149  157 1   
   157  149  158 1   
   158  150  151 1   
   159  150  152 1   
   160  159  160 1   
   161  159  168 1   
   162  160  161 1   
   163  160  163 1   
   164  160  169 1   
   165  161  162 2   
   166  161  174 1   
   167  163  164 1   
   168  163  170 1   
   169  163  171 1   
   170  164  165 1   
   171  164  172 1   
   172  164  173 1   
   173  165  166 1   
   174  165  167 1   
   175  174  175 1   
   176  174  179 1   
   177  175  176 1   
   178  175  177 1   
   179  175  178 1   
   180  181  182 1   
   181  181  183 1   
   182  184  185 1   
   183  184  186 1   
@<TRIPOS>SUBSTRUCTURE
     1 MOL         1 TEMP              0 ****  ****    0 ROOT
