@<TRIPOS>MOLECULE
MOL
  189   185     1     0     0
SMALL
resp


@<TRIPOS>ATOM
      1 C1          0.3340    3.2040   -5.4460 c3        1 MOL     -0.337525
      2 C2          0.6670    2.7380   -3.9590 c         1 MOL      0.590724
      3 O1         -0.1230    2.9830   -3.1230 o         1 MOL     -0.502417
      4 H1          1.2590    3.4520   -5.9640 hc        1 MOL      0.082608
      5 H2         -0.1740    2.3980   -5.9750 hc        1 MOL      0.082608
      6 H3         -0.3110    4.0830   -5.4150 hc        1 MOL      0.082608
      7 N1          1.8420    2.0980   -3.7090 n         1 MOL     -0.510025
      8 C3          2.2580    1.6870   -2.3270 c3        1 MOL      0.267878
      9 C4          2.5700    2.9370   -1.5460 c         1 MOL      0.245154
     10 O2          3.6100    3.5440   -1.7220 o         1 MOL     -0.503151
     11 C5          3.3820    0.6870   -2.4490 c3        1 MOL     -0.139246
     12 C6          3.9820    0.2580   -1.1780 c         1 MOL      0.598088
     13 O3          5.1270   -0.2200   -1.1520 o         1 MOL     -0.541976
     14 O4          3.3560    0.6390   -0.1810 o         1 MOL     -0.541976
     15 H4          2.5570    2.0860   -4.4110 hn        1 MOL      0.311927
     16 H5          1.5140    1.1330   -1.7620 h1        1 MOL     -0.067624
     17 H6          4.1890    1.0590   -3.0730 hc        1 MOL      0.012415
     18 H7          3.0440   -0.2070   -2.9780 hc        1 MOL      0.012415
     19 N2          1.5510    3.4290   -0.8170 n         1 MOL     -0.005223
     20 C7          1.6640    4.8080   -0.1410 c3        1 MOL     -0.256235
     21 C8          2.7930    4.8840    0.9040 c         1 MOL      0.679267
     22 O5          3.0380    6.0610    1.2900 o         1 MOL     -0.604048
     23 C9          0.3100    5.4130    0.3780 c3        1 MOL      0.048813
     24 C10        -0.8040    5.3210   -0.6430 c3        1 MOL     -0.024348
     25 C11        -0.6100    5.9600   -2.0330 c3        1 MOL     -0.123941
     26 C12        -0.8190    7.4450   -2.1190 c3        1 MOL      0.199708
     27 N3         -0.5530    7.9540   -3.4790 n4        1 MOL     -0.564178
     28 H8          0.6820    2.9260   -0.8220 hn        1 MOL      0.269872
     29 H9          2.0470    5.4650   -0.9270 h1        1 MOL      0.078066
     30 H10         0.3630    6.4510    0.7160 hc        1 MOL      0.023256
     31 H11         0.0340    4.8730    1.2880 hc        1 MOL      0.023256
     32 H12        -1.6870    5.8040   -0.2270 hc        1 MOL      0.029452
     33 H13        -0.9590    4.2610   -0.8290 hc        1 MOL      0.029452
     34 H14        -1.2600    5.3820   -2.6800 hc        1 MOL      0.050481
     35 H15         0.3320    5.6570   -2.4880 hc        1 MOL      0.050481
     36 H16        -0.0770    7.9380   -1.4970 hx        1 MOL      0.043575
     37 H17        -1.7800    7.7240   -1.7020 hx        1 MOL      0.043575
     38 H18        -0.4840    7.1760   -4.1300 hn        1 MOL      0.378728
     39 H19        -1.3690    8.5230   -3.6540 hn        1 MOL      0.378728
     40 H20         0.2580    8.5540   -3.4950 hn        1 MOL      0.378728
     41 N4          3.4790    3.7990    1.2630 n         1 MOL     -0.336487
     42 C13         4.3640    3.8690    2.3600 c3        1 MOL      0.070545
     43 C14         5.7270    3.2450    2.1910 c         1 MOL      0.496885
     44 O6          6.7000    3.6100    2.8430 o         1 MOL     -0.535754
     45 C15         3.6360    3.3790    3.6740 c3        1 MOL     -0.201806
     46 C16         3.0390    1.9310    3.6000 c         1 MOL      0.805210
     47 O7          3.3600    1.1370    2.7020 o         1 MOL     -0.699118
     48 O8          2.1460    1.7520    4.4480 o         1 MOL     -0.699118
     49 H21         3.2850    2.9590    0.7260 hn        1 MOL      0.046583
     50 H22         4.6310    4.9030    2.5510 h1        1 MOL      0.055141
     51 H23         2.8080    4.0900    3.7200 hc        1 MOL      0.050013
     52 H24         4.2740    3.5200    4.5470 hc        1 MOL      0.050013
     53 N5          5.8870    2.2240    1.2990 n         1 MOL     -0.358128
     54 C17         7.1680    1.4600    1.0720 c3        1 MOL     -0.038185
     55 C18         7.2680    0.2240    1.9390 c         1 MOL      0.491122
     56 O9          8.1700    0.0730    2.7650 o         1 MOL     -0.563877
     57 H25         5.0100    1.7920    1.0210 hn        1 MOL      0.341819
     58 H26         8.0800    2.0170    1.2900 h1        1 MOL      0.062835
     59 H27         7.2370    1.2760    0.0010 h1        1 MOL      0.062835
     60 N6          6.4010   -0.7120    1.7530 n         1 MOL     -0.090936
     61 C19         6.6370   -2.1630    2.0360 c3        1 MOL     -0.040466
     62 C20         6.7970   -2.9860    0.7910 c         1 MOL      0.420564
     63 O10         7.0570   -4.2010    0.8790 o         1 MOL     -0.524910
     64 C21         5.5940   -2.6990    3.0460 c3        1 MOL     -0.095750
     65 C22         4.1430   -2.3130    2.6510 c         1 MOL      0.606449
     66 O11         3.8120   -2.1760    1.4620 o         1 MOL     -0.671326
     67 O12         3.3570   -2.0070    3.5940 o         1 MOL     -0.671326
     68 H28         5.6720   -0.5120    1.0910 hn        1 MOL     -0.027494
     69 H29         7.6110   -2.1680    2.5310 h1        1 MOL      0.101485
     70 H30         5.9110   -2.2990    4.0050 hc        1 MOL      0.050014
     71 H31         5.6880   -3.7860    3.1070 hc        1 MOL      0.050014
     72 N7          6.7160   -2.3450   -0.3720 n         1 MOL     -0.243909
     73 C23         6.8600   -3.1250   -1.6100 c3        1 MOL     -0.163242
     74 C24         5.5060   -3.8790   -1.9380 c         1 MOL      0.455112
     75 O13         5.5580   -4.8320   -2.7050 o         1 MOL     -0.526093
     76 H32         6.4170   -1.3860   -0.3990 hn        1 MOL      0.198827
     77 H33         7.6170   -3.9140   -1.5490 h1        1 MOL      0.115202
     78 H34         6.9630   -2.4420   -2.4520 h1        1 MOL      0.115202
     79 N8          4.3420   -3.4640   -1.3160 n         1 MOL     -0.098216
     80 C25         3.0360   -4.1290   -1.4720 c3        1 MOL     -0.315763
     81 C26         1.9050   -3.0680   -1.3860 c         1 MOL      0.726510
     82 O14         2.0070   -1.9960   -0.7990 o         1 MOL     -0.644875
     83 C27         2.8420   -5.1750   -0.3470 c3        1 MOL      0.459855
     84 C28         3.9290   -6.2610   -0.4530 c3        1 MOL     -0.437688
     85 O15         2.9110   -4.5800    0.9130 oh        1 MOL     -0.628561
     86 H35         4.3390   -2.6710   -0.6940 hn        1 MOL      0.092030
     87 H36         2.9830   -4.6110   -2.4540 h1        1 MOL      0.129188
     88 H37         1.8760   -5.6770   -0.3860 h1        1 MOL     -0.016492
     89 H38         3.3770   -3.7440    0.8630 ho        1 MOL      0.444588
     90 H39         3.8690   -6.5930   -1.4850 hc        1 MOL      0.113447
     91 H40         4.9330   -5.9410   -0.1540 hc        1 MOL      0.113447
     92 H41         3.6790   -7.0610    0.2440 hc        1 MOL      0.113447
     93 N9          0.7880   -3.3480   -2.1060 n         1 MOL     -0.730536
     94 C29        -0.3350   -2.3440   -2.2770 c3        1 MOL      0.028491
     95 C30        -1.5860   -3.0110   -1.7780 c         1 MOL      0.568037
     96 O16        -1.9310   -4.1010   -2.3060 o         1 MOL     -0.562830
     97 C31        -0.4170   -1.9540   -3.8030 c3        1 MOL      0.195551
     98 C32         0.9280   -1.6810   -4.5760 c3        1 MOL      0.247646
     99 C33        -1.4120   -0.7550   -3.9590 c3        1 MOL     -0.275104
    100 C34         0.8540   -1.7490   -6.1160 c3        1 MOL     -0.273245
    101 H42         0.6900   -4.1920   -2.6540 hn        1 MOL      0.342253
    102 H43        -0.1440   -1.4240   -1.7150 h1        1 MOL      0.180091
    103 H44        -0.9490   -2.7860   -4.2710 hc        1 MOL     -0.037989
    104 H45         1.6270   -2.4800   -4.3360 hc        1 MOL     -0.032420
    105 H46         1.2390   -0.6760   -4.2880 hc        1 MOL     -0.032420
    106 H47        -2.3380   -0.9070   -3.4130 hc        1 MOL      0.042125
    107 H48        -0.9080    0.1730   -3.7020 hc        1 MOL      0.042125
    108 H49        -1.6730   -0.6980   -5.0170 hc        1 MOL      0.042125
    109 H50        -0.1220   -1.4930   -6.5160 hc        1 MOL      0.053756
    110 H51         1.6270   -1.0300   -6.4150 hc        1 MOL      0.053756
    111 H52         1.1760   -2.7280   -6.4690 hc        1 MOL      0.053756
    112 N10        -2.2360   -2.3520   -0.7770 n         1 MOL     -0.129497
    113 C35        -3.4250   -2.8810   -0.1660 c3        1 MOL     -0.117251
    114 C36        -4.5920   -2.4050   -0.9300 c         1 MOL      0.374345
    115 O17        -4.5360   -1.4490   -1.6880 o         1 MOL     -0.322169
    116 C37        -3.4990   -2.4550    1.2710 c3        1 MOL      0.219974
    117 C38        -2.3160   -2.9230    2.1740 c3        1 MOL     -0.536758
    118 O18        -3.6750   -1.1070    1.4090 oh        1 MOL     -0.338381
    119 H53        -1.8350   -1.5050   -0.3830 hn        1 MOL      0.058029
    120 H54        -3.3590   -3.9740   -0.1540 h1        1 MOL      0.092069
    121 H55        -4.3930   -2.9120    1.6780 h1        1 MOL      0.001502
    122 H56        -3.2290   -0.8270    2.2190 ho        1 MOL      0.367602
    123 H57        -2.6820   -3.1520    3.1710 hc        1 MOL      0.157521
    124 H58        -1.9130   -3.7950    1.6640 hc        1 MOL      0.157521
    125 H59        -1.5190   -2.1700    2.2110 hc        1 MOL      0.157521
    126 N11        -5.7560   -3.0200   -0.6150 n         1 MOL     -0.342238
    127 C39        -7.1110   -2.5960   -1.0200 c3        1 MOL     -0.050490
    128 C40        -7.4860   -1.2590   -0.4340 c         1 MOL      0.378845
    129 O19        -8.2340   -0.5040   -1.1390 o         1 MOL     -0.506807
    130 C41        -8.2150   -3.6140   -0.7030 c3        1 MOL      0.210342
    131 C42        -8.0870   -4.9010   -1.4670 c3        1 MOL     -0.326896
    132 O20        -8.1410   -4.0860    0.6110 oh        1 MOL     -0.630835
    133 H60        -5.7670   -3.7270    0.1100 hn        1 MOL      0.296161
    134 H61        -7.1520   -2.4170   -2.0950 h1        1 MOL      0.138028
    135 H62        -9.1310   -3.0820   -0.9510 h1        1 MOL      0.059008
    136 H63        -8.9620   -4.5720    0.7700 ho        1 MOL      0.423760
    137 H64        -7.9530   -4.8050   -2.5490 hc        1 MOL      0.095551
    138 H65        -7.2450   -5.4930   -1.1100 hc        1 MOL      0.095551
    139 H66        -9.0210   -5.4530   -1.3430 hc        1 MOL      0.095551
    140 N12        -6.8120   -0.7510    0.6410 n         1 MOL     -0.214176
    141 C43        -7.0340    0.6010    1.1380 c3        1 MOL     -0.016160
    142 C44        -6.1450    1.6510    0.5200 c         1 MOL      0.386175
    143 O21        -6.5780    2.7830    0.3210 o         1 MOL     -0.508152
    144 C45        -6.8530    0.5820    2.6460 c3        1 MOL      0.064165
    145 C46        -8.0910    0.1290    3.4720 c3        1 MOL     -0.093270
    146 C47        -7.7660    0.5880    4.9130 c3        1 MOL     -0.000676
    147 C48        -8.9910    0.5170    5.9280 c3        1 MOL     -0.004547
    148 N13        -8.5580    0.9140    7.2990 n4        1 MOL     -0.233482
    149 H67        -6.1380   -1.3390    1.1090 hn        1 MOL      0.195920
    150 H68        -8.0340    0.9720    0.9250 h1        1 MOL      0.106206
    151 H69        -6.5780    1.5910    2.9340 hc        1 MOL     -0.006259
    152 H70        -5.9530   -0.0050    2.8160 hc        1 MOL     -0.006259
    153 H71        -8.3410   -0.9310    3.4040 hc        1 MOL      0.041364
    154 H72        -8.9380    0.6230    3.0160 hc        1 MOL      0.041364
    155 H73        -7.3200    1.5820    4.8410 hc        1 MOL      0.033398
    156 H74        -6.9990   -0.0860    5.2860 hc        1 MOL      0.033398
    157 H75        -9.4610   -0.4650    5.9410 hx        1 MOL      0.093125
    158 H76        -9.7520    1.1980    5.5520 hx        1 MOL      0.093125
    159 H77        -9.3320    1.1060    7.9120 hn        1 MOL      0.275131
    160 H78        -7.9590    0.2570    7.7760 hn        1 MOL      0.275131
    161 H79        -7.9500    1.7110    7.2100 hn        1 MOL      0.275131
    162 N14        -4.9350    1.2170    0.1410 n         1 MOL      0.021997
    163 C49        -4.0110    2.0390   -0.6930 c3        1 MOL     -0.073545
    164 C50        -4.5370    2.2550   -2.1200 c         1 MOL      0.409780
    165 O22        -4.5760    3.4160   -2.5590 o         1 MOL     -0.531649
    166 C51        -2.5700    1.5130   -0.5950 c3        1 MOL      0.044967
    167 C52        -1.9490    1.5640    0.7780 c3        1 MOL      0.057545
    168 C53        -0.6070    0.8690    0.8870 c         1 MOL      0.613704
    169 O23        -0.5350   -0.3380    0.6720 o         1 MOL     -0.668804
    170 O24         0.4300    1.5280    1.1130 o         1 MOL     -0.668804
    171 H80        -4.6880    0.2600    0.3520 hn        1 MOL     -0.109818
    172 H81        -4.1160    3.0300   -0.2490 h1        1 MOL      0.065643
    173 H82        -1.8990    2.0340   -1.2750 hc        1 MOL     -0.014939
    174 H83        -2.6020    0.4990   -1.0100 hc        1 MOL     -0.014939
    175 H84        -2.6950    1.0910    1.4140 hc        1 MOL     -0.044737
    176 H85        -1.9060    2.5840    1.1580 hc        1 MOL     -0.044737
    177 N15        -5.2000    1.2220   -2.7410 n         1 MOL     -0.117305
    178 C54        -6.0440    1.3100   -3.9860 c3        1 MOL     -0.277965
    179 H86        -6.8770    0.6120   -3.9090 h1        1 MOL      0.115273
    180 H87        -6.4300    2.3240   -4.0930 h1        1 MOL      0.115273
    181 H88        -5.4380    1.0590   -4.8560 h1        1 MOL      0.115273
    182 H89        -5.2100    0.3670   -2.2020 hn        1 MOL      0.150895
    183 Ca1         1.8570   -0.6780    1.5150 Ca        1 MOL      1.699329
    184 O25         0.7720   -3.1120    2.1160 oh        1 MOL     -0.855325
    185 H90         0.0350   -3.5630    2.5330 ho        1 MOL      0.394006
    186 H91         1.4360   -3.7920    2.0030 ho        1 MOL      0.394006
    187 O26         0.4850   -0.2730    3.7820 oh        1 MOL     -0.855325
    188 H92         0.0120   -0.7600    4.4540 ho        1 MOL      0.394006
    189 H93         0.9890    0.3860    4.2700 ho        1 MOL      0.394006
@<TRIPOS>BOND
     1    1    2 1   
     2    1    4 1   
     3    1    5 1   
     4    1    6 1   
     5    2    3 2   
     6    2    7 1   
     7    7    8 1   
     8    7   15 1   
     9    8    9 1   
    10    8   11 1   
    11    8   16 1   
    12    9   10 2   
    13    9   19 1   
    14   11   12 1   
    15   11   17 1   
    16   11   18 1   
    17   12   13 1   
    18   12   14 1   
    19   19   20 1   
    20   19   28 1   
    21   20   21 1   
    22   20   23 1   
    23   20   29 1   
    24   21   22 2   
    25   21   41 1   
    26   23   24 1   
    27   23   30 1   
    28   23   31 1   
    29   24   25 1   
    30   24   32 1   
    31   24   33 1   
    32   25   26 1   
    33   25   34 1   
    34   25   35 1   
    35   26   27 1   
    36   26   36 1   
    37   26   37 1   
    38   27   38 1   
    39   27   39 1   
    40   27   40 1   
    41   41   42 1   
    42   41   49 1   
    43   42   43 1   
    44   42   45 1   
    45   42   50 1   
    46   43   44 2   
    47   43   53 1   
    48   45   46 1   
    49   45   51 1   
    50   45   52 1   
    51   46   47 1   
    52   46   48 1   
    53   53   54 1   
    54   53   57 1   
    55   54   55 1   
    56   54   58 1   
    57   54   59 1   
    58   55   56 2   
    59   55   60 1   
    60   60   61 1   
    61   60   68 1   
    62   61   62 1   
    63   61   64 1   
    64   61   69 1   
    65   62   63 2   
    66   62   72 1   
    67   64   65 1   
    68   64   70 1   
    69   64   71 1   
    70   65   66 1   
    71   65   67 1   
    72   72   73 1   
    73   72   76 1   
    74   73   74 1   
    75   73   77 1   
    76   73   78 1   
    77   74   75 2   
    78   74   79 1   
    79   79   80 1   
    80   79   86 1   
    81   80   81 1   
    82   80   83 1   
    83   80   87 1   
    84   81   82 2   
    85   81   93 1   
    86   83   84 1   
    87   83   85 1   
    88   83   88 1   
    89   84   90 1   
    90   84   91 1   
    91   84   92 1   
    92   85   89 1   
    93   93   94 1   
    94   93  101 1   
    95   94   95 1   
    96   94   97 1   
    97   94  102 1   
    98   95   96 2   
    99   95  112 1   
   100   97   98 1   
   101   97   99 1   
   102   97  103 1   
   103   98  100 1   
   104   98  104 1   
   105   98  105 1   
   106   99  106 1   
   107   99  107 1   
   108   99  108 1   
   109  100  109 1   
   110  100  110 1   
   111  100  111 1   
   112  112  113 1   
   113  112  119 1   
   114  113  114 1   
   115  113  116 1   
   116  113  120 1   
   117  114  115 2   
   118  114  126 1   
   119  116  117 1   
   120  116  118 1   
   121  116  121 1   
   122  117  123 1   
   123  117  124 1   
   124  117  125 1   
   125  118  122 1   
   126  126  127 1   
   127  126  133 1   
   128  127  128 1   
   129  127  130 1   
   130  127  134 1   
   131  128  129 2   
   132  128  140 1   
   133  130  131 1   
   134  130  132 1   
   135  130  135 1   
   136  131  137 1   
   137  131  138 1   
   138  131  139 1   
   139  132  136 1   
   140  140  141 1   
   141  140  149 1   
   142  141  142 1   
   143  141  144 1   
   144  141  150 1   
   145  142  143 2   
   146  142  162 1   
   147  144  145 1   
   148  144  151 1   
   149  144  152 1   
   150  145  146 1   
   151  145  153 1   
   152  145  154 1   
   153  146  147 1   
   154  146  155 1   
   155  146  156 1   
   156  147  148 1   
   157  147  157 1   
   158  147  158 1   
   159  148  159 1   
   160  148  160 1   
   161  148  161 1   
   162  162  163 1   
   163  162  171 1   
   164  163  164 1   
   165  163  166 1   
   166  163  172 1   
   167  164  165 2   
   168  164  177 1   
   169  166  167 1   
   170  166  173 1   
   171  166  174 1   
   172  167  168 1   
   173  167  175 1   
   174  167  176 1   
   175  168  169 1   
   176  168  170 1   
   177  177  178 1   
   178  177  182 1   
   179  178  179 1   
   180  178  180 1   
   181  178  181 1   
   182  184  185 1   
   183  184  186 1   
   184  187  188 1   
   185  187  189 1   
@<TRIPOS>SUBSTRUCTURE
     1 MOL         1 TEMP              0 ****  ****    0 ROOT
