@<TRIPOS>MOLECULE
MOL
  189   185     1     0     0
SMALL
resp


@<TRIPOS>ATOM
      1 C1         -0.0040    4.1060    5.6960 c3        1 MOL     -0.278792
      2 C2         -0.8030    3.4140    4.5040 c         1 MOL      0.688718
      3 O1         -1.0800    2.2010    4.5350 o         1 MOL     -0.591299
      4 H1          0.0850    5.1740    5.5000 hc        1 MOL      0.068873
      5 H2         -0.5420    3.9510    6.6310 hc        1 MOL      0.068873
      6 H3          0.9900    3.6660    5.7710 hc        1 MOL      0.068873
      7 N1         -1.2220    4.2570    3.5290 n         1 MOL     -0.578132
      8 C3         -1.9640    3.7880    2.3140 c3        1 MOL      0.317309
      9 C4         -1.8310    4.8110    1.1620 c         1 MOL      0.416020
     10 O2         -1.9980    5.9980    1.4950 o         1 MOL     -0.563591
     11 C5         -3.3970    3.5450    2.7420 c3        1 MOL     -0.452276
     12 C6         -4.3030    2.8830    1.6540 c         1 MOL      0.897654
     13 O3         -5.5270    2.8470    1.9210 o         1 MOL     -0.721122
     14 O4         -3.8020    2.3440    0.6100 o         1 MOL     -0.721122
     15 H4         -1.0780    5.2450    3.6350 hn        1 MOL      0.319681
     16 H5         -1.6010    2.8070    2.0200 h1        1 MOL     -0.086707
     17 H6         -3.8020    4.5410    2.8980 hc        1 MOL      0.099037
     18 H7         -3.4150    2.8280    3.5560 hc        1 MOL      0.099037
     19 N2         -1.4970    4.4660   -0.0930 n         1 MOL     -0.121220
     20 C7         -1.4400    5.3150   -1.2600 c3        1 MOL     -0.041526
     21 C8         -2.3550    4.9260   -2.3940 c         1 MOL      0.414009
     22 O5         -2.3480    5.4830   -3.4790 o         1 MOL     -0.541179
     23 C9         -0.0410    5.7750   -1.6990 c3        1 MOL      0.275007
     24 C10         0.7170    4.9940   -2.7430 c3        1 MOL      0.118612
     25 C11         0.9070    5.9790   -0.4800 c3        1 MOL     -0.367179
     26 C12         1.9230    5.8280   -3.3520 c3        1 MOL     -0.302605
     27 H8         -1.1800    3.5210   -0.2650 hn        1 MOL      0.157299
     28 H9         -1.7920    6.2740   -0.8740 h1        1 MOL      0.054063
     29 H10        -0.1730    6.7330   -2.2050 hc        1 MOL     -0.071667
     30 H11         0.1080    4.7090   -3.6030 hc        1 MOL     -0.012952
     31 H12         1.0040    4.1000   -2.1910 hc        1 MOL     -0.012952
     32 H13         1.1260    5.0000   -0.0750 hc        1 MOL      0.080015
     33 H14         1.8280    6.5070   -0.7190 hc        1 MOL      0.080015
     34 H15         0.3400    6.5060    0.2900 hc        1 MOL      0.080015
     35 H16         2.3450    5.2350   -4.1670 hc        1 MOL      0.070203
     36 H17         1.6190    6.7300   -3.8770 hc        1 MOL      0.070203
     37 H18         2.6930    5.9720   -2.5900 hc        1 MOL      0.070203
     38 N3         -3.1280    3.8090   -2.2240 n         1 MOL     -0.340986
     39 C13        -3.9860    3.2790   -3.3920 c3        1 MOL      0.077565
     40 C14        -5.3780    2.8360   -2.9600 c         1 MOL      0.420594
     41 O6         -6.1410    2.5660   -3.8720 o         1 MOL     -0.543561
     42 C15        -3.1630    2.1960   -4.0850 c3        1 MOL     -0.223636
     43 C16        -2.5050    1.1770   -3.2140 c         1 MOL      0.807047
     44 O7         -3.0420    0.8730   -2.1400 o         1 MOL     -0.757238
     45 O8         -1.4050    0.5760   -3.5100 o         1 MOL     -0.757238
     46 H19        -3.2720    3.3200   -1.3490 hn        1 MOL      0.181853
     47 H20        -4.1430    4.0850   -4.1080 h1        1 MOL      0.089155
     48 H21        -2.3880    2.7260   -4.6400 hc        1 MOL      0.064210
     49 H22        -3.8130    1.7090   -4.8060 hc        1 MOL      0.064210
     50 N4         -5.6940    2.6910   -1.6400 n         1 MOL     -0.230258
     51 C17        -6.9880    2.3170   -1.1480 c3        1 MOL     -0.137726
     52 C18        -7.3970    0.8000   -1.3230 c         1 MOL      0.446854
     53 O9         -8.5810    0.4790   -1.2470 o         1 MOL     -0.600941
     54 H23        -4.9540    2.8010   -0.9560 hn        1 MOL      0.126566
     55 H24        -7.7170    2.9640   -1.6320 h1        1 MOL      0.101214
     56 H25        -7.1260    2.5740   -0.1030 h1        1 MOL      0.101214
     57 N5         -6.4740   -0.0740   -1.6330 n         1 MOL     -0.198652
     58 C19        -6.7290   -1.5510   -1.9740 c3        1 MOL      0.003178
     59 C20        -7.1240   -2.4370   -0.7480 c         1 MOL      0.370153
     60 O10        -7.5100   -3.5970   -0.9610 o         1 MOL     -0.534114
     61 C21        -5.6570   -2.1390   -2.8760 c3        1 MOL     -0.326216
     62 C22        -4.2800   -2.1170   -2.2130 c         1 MOL      0.738128
     63 O11        -4.1310   -1.6960   -1.0380 o         1 MOL     -0.689697
     64 O12        -3.2600   -2.5280   -2.8390 o         1 MOL     -0.689697
     65 H26        -5.5170    0.2450   -1.7070 hn        1 MOL      0.251734
     66 H27        -7.6490   -1.6580   -2.5500 h1        1 MOL      0.108706
     67 H28        -5.5450   -1.5740   -3.7930 hc        1 MOL      0.100140
     68 H29        -5.9640   -3.1590   -3.1240 hc        1 MOL      0.100140
     69 N6         -6.9320   -2.0160    0.4670 n         1 MOL     -0.123902
     70 C23        -7.0050   -2.7800    1.7360 c3        1 MOL     -0.214888
     71 C24        -5.8120   -3.6780    2.1190 c         1 MOL      0.563345
     72 O13        -6.0320   -4.5800    2.9390 o         1 MOL     -0.583581
     73 H30        -6.6470   -1.0490    0.5470 hn        1 MOL      0.171610
     74 H31        -7.9230   -3.3580    1.6510 h1        1 MOL      0.105005
     75 H32        -7.1760   -2.1570    2.6060 h1        1 MOL      0.105005
     76 N7         -4.5750   -3.4890    1.5760 n         1 MOL     -0.331916
     77 C25        -3.3680   -4.3380    1.7680 c3        1 MOL      0.246979
     78 C26        -2.1110   -3.4410    1.8000 c         1 MOL      0.100969
     79 O14        -2.1390   -2.3430    1.3640 o         1 MOL     -0.244139
     80 C27        -3.1530   -5.4250    0.7510 c3        1 MOL     -0.146765
     81 C28        -3.2760   -4.8790   -0.6860 c3        1 MOL     -0.048654
     82 C29        -2.8110   -5.7680   -1.8990 c         1 MOL      0.664015
     83 N8         -2.5640   -5.1760   -3.0010 n         1 MOL     -0.784382
     84 O15        -2.6710   -6.9380   -1.8170 o         1 MOL     -0.628498
     85 H33        -4.5240   -2.6910    0.9520 hn        1 MOL      0.238860
     86 H34        -3.4620   -4.7420    2.7760 h1        1 MOL     -0.011588
     87 H35        -3.8030   -6.2980    0.8750 hc        1 MOL      0.028529
     88 H36        -2.1270   -5.7820    0.8420 hc        1 MOL      0.028529
     89 H37        -2.6490   -3.9880   -0.7090 hc        1 MOL      0.065000
     90 H38        -4.3110   -4.6640   -0.9210 hc        1 MOL      0.065000
     91 H39        -2.5400   -4.1650   -2.9800 hn        1 MOL      0.352342
     92 H40        -2.3880   -5.6570   -3.8620 hn        1 MOL      0.352342
     93 N9         -0.9780   -3.9180    2.3490 n         1 MOL     -0.097155
     94 C30         0.2110   -3.1540    2.5720 c3        1 MOL     -0.394903
     95 C31         1.2150   -3.4290    1.4480 c         1 MOL      0.656925
     96 O16         1.7750   -4.5270    1.3310 o         1 MOL     -0.597753
     97 C32         0.8630   -3.4390    3.9450 c3        1 MOL      0.612779
     98 C33         1.7500   -2.1880    4.1870 c3        1 MOL     -0.583973
     99 C34        -0.0990   -3.4890    5.1350 c3        1 MOL     -0.583973
    100 H41        -0.9960   -4.9330    2.4550 hn        1 MOL      0.204281
    101 H42         0.0040   -2.0830    2.6300 h1        1 MOL      0.181586
    102 H43         1.4350   -4.3590    3.9560 hc        1 MOL     -0.090009
    103 H44         2.3720   -1.9920    3.3140 hc        1 MOL      0.123081
    104 H45         1.0980   -1.3330    4.3540 hc        1 MOL      0.123081
    105 H46         2.3670   -2.4140    5.0530 hc        1 MOL      0.123081
    106 H47         0.5660   -3.7390    5.9640 hc        1 MOL      0.123081
    107 H48        -0.6100   -2.5500    5.3040 hc        1 MOL      0.123081
    108 H49        -0.7380   -4.3490    4.9270 hc        1 MOL      0.123081
    109 N10         1.5080   -2.3950    0.6520 n         1 MOL     -0.397959
    110 C35         2.6840   -2.3690   -0.2920 c3        1 MOL      0.045675
    111 C36         4.0040   -2.2380    0.4890 c         1 MOL      0.269792
    112 O17         4.0450   -1.8330    1.6110 o         1 MOL     -0.313672
    113 C37         2.4710   -1.2170   -1.2770 c3        1 MOL     -0.163286
    114 C38         3.6650   -1.2030   -2.2570 c         1 MOL      0.569385
    115 N11         3.9590   -2.2770   -2.9320 n         1 MOL     -0.665944
    116 O18         4.5070   -0.2980   -2.3460 o         1 MOL     -0.540431
    117 H50         1.0880   -1.5060    0.8700 hn        1 MOL      0.229403
    118 H51         2.7480   -3.3140   -0.8270 h1        1 MOL      0.085806
    119 H52         2.4720   -0.3120   -0.6670 hc        1 MOL      0.117427
    120 H53         1.5560   -1.3970   -1.8280 hc        1 MOL      0.117427
    121 H54         3.4300   -3.1340   -2.9560 hn        1 MOL      0.306911
    122 H55         4.8230   -2.2940   -3.4610 hn        1 MOL      0.306911
    123 N12         5.1270   -2.5270   -0.0810 n         1 MOL     -0.158119
    124 C39         6.4110   -2.2700    0.5310 c3        1 MOL      0.045099
    125 C40         6.7650   -0.7860    0.7930 c         1 MOL      0.330391
    126 O19         7.1340   -0.4200    1.9370 o         1 MOL     -0.533430
    127 C41         7.5610   -2.8420   -0.2900 c3        1 MOL     -0.116829
    128 C42         7.3160   -2.9540   -1.7780 ca        1 MOL     -0.055298
    129 C43         6.8670   -4.1240   -2.3900 ca        1 MOL     -0.083663
    130 C44         7.6210   -1.8600   -2.6360 ca        1 MOL     -0.083663
    131 C45         6.4270   -4.0980   -3.7390 ca        1 MOL     -0.270079
    132 C46         7.2230   -1.8070   -3.9920 ca        1 MOL     -0.270079
    133 C47         6.6050   -2.9090   -4.5500 ca        1 MOL      0.391982
    134 O20         6.2820   -2.8770   -5.8850 oh        1 MOL     -0.584556
    135 H56         5.1510   -2.8720   -1.0330 hn        1 MOL      0.104051
    136 H57         6.4360   -2.7490    1.5030 h1        1 MOL      0.056845
    137 H58         7.8270   -3.8220    0.1000 hc        1 MOL      0.078074
    138 H59         8.4720   -2.3070    0.0070 hc        1 MOL      0.078074
    139 H60         6.6670   -4.9470   -1.7180 ha        1 MOL      0.094791
    140 H61         7.9610   -0.9390   -2.1870 ha        1 MOL      0.094791
    141 H62         5.9840   -4.9690   -4.1940 ha        1 MOL      0.139194
    142 H63         7.3260   -0.8670   -4.5110 ha        1 MOL      0.139194
    143 H64         6.2220   -1.9610   -6.1560 ho        1 MOL      0.418601
    144 N13         6.3810    0.0990   -0.1080 n         1 MOL     -0.128747
    145 C48         6.3980    1.6140    0.1570 c3        1 MOL     -0.389773
    146 C49         5.4800    2.1280    1.3210 c         1 MOL      0.507974
    147 O21         5.7500    3.1840    1.8840 o         1 MOL     -0.515777
    148 C50         5.9970    2.4110   -1.0390 c3        1 MOL      0.059410
    149 C51         6.8840    2.3040   -2.2300 c3        1 MOL     -0.064425
    150 C52         8.3600    2.5300   -1.8340 c         1 MOL      0.606900
    151 O22         8.6980    3.6150   -1.3310 o         1 MOL     -0.696119
    152 O23         9.0960    1.5500   -1.8140 o         1 MOL     -0.696119
    153 H65         5.9960   -0.1530   -1.0070 hn        1 MOL      0.367419
    154 H66         7.4380    1.8610    0.3670 h1        1 MOL      0.261715
    155 H67         6.0150    3.4670   -0.7610 hc        1 MOL      0.009711
    156 H68         4.9910    2.1380   -1.3550 hc        1 MOL      0.009711
    157 H69         6.5850    3.0200   -2.9890 hc        1 MOL     -0.025679
    158 H70         6.7160    1.3350   -2.6860 hc        1 MOL     -0.025679
    159 N14         4.4430    1.3790    1.6420 n         1 MOL     -0.146072
    160 C53         3.5500    1.6230    2.7970 c3        1 MOL     -0.059160
    161 C54         4.1130    1.1850    4.1100 c         1 MOL      0.454714
    162 O24         4.1690    1.9280    5.0900 o         1 MOL     -0.544576
    163 C55         2.1020    1.1250    2.4950 c3        1 MOL      0.127101
    164 C56         1.3820    1.9410    1.4220 c3        1 MOL     -0.030270
    165 C57         0.1880    1.2520    0.7560 c         1 MOL      0.657677
    166 O25        -0.6830    1.8620    0.0560 o         1 MOL     -0.676180
    167 O26        -0.2410    0.1180    1.0640 o         1 MOL     -0.676180
    168 H71         4.5420    0.4130    1.3820 hn        1 MOL      0.047026
    169 H72         3.4160    2.7010    2.9080 h1        1 MOL      0.060145
    170 H73         1.5210    1.2820    3.4130 hc        1 MOL     -0.020008
    171 H74         2.1370    0.0560    2.2870 hc        1 MOL     -0.020008
    172 H75         2.0810    2.1360    0.6170 hc        1 MOL     -0.012385
    173 H76         1.1440    2.9590    1.7270 hc        1 MOL     -0.012385
    174 N15         4.6060   -0.0950    4.1300 n         1 MOL     -0.000101
    175 C58         5.1830   -0.7260    5.2810 c3        1 MOL     -0.375790
    176 H77         5.1130   -1.8080    5.1740 h1        1 MOL      0.109977
    177 H78         6.2300   -0.4370    5.3690 h1        1 MOL      0.109977
    178 H79         4.6430   -0.4140    6.1760 h1        1 MOL      0.109977
    179 H80         4.6620   -0.5910    3.2590 hn        1 MOL      0.139691
    180 Ca1        -2.6740    0.0600    0.1850 Ca        1 MOL      1.750951
    181 O27        -2.5700    0.4670    2.8020 oh        1 MOL     -1.051650
    182 H81        -1.9300    1.1450    3.0210 ho        1 MOL      0.484980
    183 H82        -2.7800    0.0610    3.6480 ho        1 MOL      0.484980
    184 O28        -5.0600   -0.2350    1.8060 oh        1 MOL     -1.051650
    185 H83        -5.9030    0.2240    1.8490 ho        1 MOL      0.484980
    186 H84        -4.6400   -0.0340    2.6460 ho        1 MOL      0.484980
    187 O29        -1.2150   -1.4080   -1.6880 oh        1 MOL     -1.051650
    188 H85        -1.1200   -0.7080   -2.3360 ho        1 MOL      0.484980
    189 H86        -2.0090   -1.8680   -1.9470 ho        1 MOL      0.484980
@<TRIPOS>BOND
     1    1    2 1   
     2    1    4 1   
     3    1    5 1   
     4    1    6 1   
     5    2    3 2   
     6    2    7 1   
     7    7    8 1   
     8    7   15 1   
     9    8    9 1   
    10    8   11 1   
    11    8   16 1   
    12    9   10 2   
    13    9   19 1   
    14   11   12 1   
    15   11   17 1   
    16   11   18 1   
    17   12   13 1   
    18   12   14 1   
    19   19   20 1   
    20   19   27 1   
    21   20   21 1   
    22   20   23 1   
    23   20   28 1   
    24   21   22 2   
    25   21   38 1   
    26   23   24 1   
    27   23   25 1   
    28   23   29 1   
    29   24   26 1   
    30   24   30 1   
    31   24   31 1   
    32   25   32 1   
    33   25   33 1   
    34   25   34 1   
    35   26   35 1   
    36   26   36 1   
    37   26   37 1   
    38   38   39 1   
    39   38   46 1   
    40   39   40 1   
    41   39   42 1   
    42   39   47 1   
    43   40   41 2   
    44   40   50 1   
    45   42   43 1   
    46   42   48 1   
    47   42   49 1   
    48   43   44 1   
    49   43   45 1   
    50   50   51 1   
    51   50   54 1   
    52   51   52 1   
    53   51   55 1   
    54   51   56 1   
    55   52   53 2   
    56   52   57 1   
    57   57   58 1   
    58   57   65 1   
    59   58   59 1   
    60   58   61 1   
    61   58   66 1   
    62   59   60 2   
    63   59   69 1   
    64   61   62 1   
    65   61   67 1   
    66   61   68 1   
    67   62   63 1   
    68   62   64 1   
    69   69   70 1   
    70   69   73 1   
    71   70   71 1   
    72   70   74 1   
    73   70   75 1   
    74   71   72 2   
    75   71   76 1   
    76   76   77 1   
    77   76   85 1   
    78   77   78 1   
    79   77   80 1   
    80   77   86 1   
    81   78   79 2   
    82   78   93 1   
    83   80   81 1   
    84   80   87 1   
    85   80   88 1   
    86   81   82 1   
    87   81   89 1   
    88   81   90 1   
    89   82   83 1   
    90   82   84 2   
    91   83   91 1   
    92   83   92 1   
    93   93   94 1   
    94   93  100 1   
    95   94   95 1   
    96   94   97 1   
    97   94  101 1   
    98   95   96 2   
    99   95  109 1   
   100   97   98 1   
   101   97   99 1   
   102   97  102 1   
   103   98  103 1   
   104   98  104 1   
   105   98  105 1   
   106   99  106 1   
   107   99  107 1   
   108   99  108 1   
   109  109  110 1   
   110  109  117 1   
   111  110  111 1   
   112  110  113 1   
   113  110  118 1   
   114  111  112 2   
   115  111  123 1   
   116  113  114 1   
   117  113  119 1   
   118  113  120 1   
   119  114  115 1   
   120  114  116 2   
   121  115  121 1   
   122  115  122 1   
   123  123  124 1   
   124  123  135 1   
   125  124  125 1   
   126  124  127 1   
   127  124  136 1   
   128  125  126 2   
   129  125  144 1   
   130  127  128 1   
   131  127  137 1   
   132  127  138 1   
   133  128  129 ar  
   134  128  130 ar  
   135  129  131 ar  
   136  129  139 1   
   137  130  132 ar  
   138  130  140 1   
   139  131  133 ar  
   140  131  141 1   
   141  132  133 ar  
   142  132  142 1   
   143  133  134 1   
   144  134  143 1   
   145  144  145 1   
   146  144  153 1   
   147  145  146 1   
   148  145  148 1   
   149  145  154 1   
   150  146  147 2   
   151  146  159 1   
   152  148  149 1   
   153  148  155 1   
   154  148  156 1   
   155  149  150 1   
   156  149  157 1   
   157  149  158 1   
   158  150  151 1   
   159  150  152 1   
   160  159  160 1   
   161  159  168 1   
   162  160  161 1   
   163  160  163 1   
   164  160  169 1   
   165  161  162 2   
   166  161  174 1   
   167  163  164 1   
   168  163  170 1   
   169  163  171 1   
   170  164  165 1   
   171  164  172 1   
   172  164  173 1   
   173  165  166 1   
   174  165  167 1   
   175  174  175 1   
   176  174  179 1   
   177  175  176 1   
   178  175  177 1   
   179  175  178 1   
   180  181  182 1   
   181  181  183 1   
   182  184  185 1   
   183  184  186 1   
   184  187  188 1   
   185  187  189 1   
@<TRIPOS>SUBSTRUCTURE
     1 MOL         1 TEMP              0 ****  ****    0 ROOT
