@<TRIPOS>MOLECULE
MOL
  189   185     1     0     0
SMALL
resp


@<TRIPOS>ATOM
      1 C1          1.5620   -3.8190    6.3340 c3        1 MOL     -0.438355
      2 C2          1.8820   -3.1810    4.9890 c         1 MOL      0.769736
      3 O1          1.6160   -2.0080    4.7360 o         1 MOL     -0.610119
      4 H1          0.5860   -3.4730    6.6770 hc        1 MOL      0.108687
      5 H2          1.5450   -4.9040    6.2280 hc        1 MOL      0.108687
      6 H3          2.3230   -3.5360    7.0610 hc        1 MOL      0.108687
      7 N1          2.3470   -4.0090    4.0340 n         1 MOL     -0.657197
      8 C3          2.8330   -3.5010    2.7150 c3        1 MOL      0.280315
      9 C4          2.8780   -4.6100    1.6010 c         1 MOL      0.353787
     10 O2          3.5020   -5.6500    1.8380 o         1 MOL     -0.586504
     11 C5          4.2490   -2.9390    2.9560 c3        1 MOL     -0.300625
     12 C6          4.8180   -2.1510    1.8190 c         1 MOL      0.848790
     13 O3          5.9230   -1.6010    2.0860 o         1 MOL     -0.733889
     14 O4          4.1530   -1.9460    0.8170 o         1 MOL     -0.733889
     15 H4          2.4840   -4.9940    4.2200 hn        1 MOL      0.324531
     16 H5          2.1760   -2.7340    2.3040 h1        1 MOL      0.085124
     17 H6          4.8900   -3.8030    3.1680 hc        1 MOL      0.050265
     18 H7          4.1910   -2.1970    3.7480 hc        1 MOL      0.050265
     19 N2          2.3300   -4.4270    0.4350 n         1 MOL     -0.008567
     20 C7          2.2440   -5.4740   -0.6630 c3        1 MOL     -0.058899
     21 C8          3.1570   -5.0870   -1.8270 c         1 MOL      0.541208
     22 O5          3.8940   -5.9160   -2.2700 o         1 MOL     -0.602454
     23 C9          0.8120   -5.6820   -1.0720 c3        1 MOL      0.211361
     24 C10        -0.1800   -5.9340    0.1790 c3        1 MOL      0.166780
     25 C11         0.6340   -6.8550   -2.0570 c3        1 MOL     -0.353692
     26 C12        -1.7530   -6.0440   -0.0650 c3        1 MOL     -0.352372
     27 H8          1.7870   -3.5800    0.3620 hn        1 MOL     -0.019454
     28 H9          2.5990   -6.4340   -0.2800 h1        1 MOL      0.061415
     29 H10         0.4000   -4.8110   -1.5740 hc        1 MOL      0.013888
     30 H11        -0.0450   -5.1080    0.8690 hc        1 MOL     -0.054512
     31 H12         0.1670   -6.7930    0.7550 hc        1 MOL     -0.054512
     32 H13         0.9630   -6.3970   -2.9930 hc        1 MOL      0.074049
     33 H14         1.0720   -7.8000   -1.7340 hc        1 MOL      0.074049
     34 H15        -0.4280   -6.9030   -2.2990 hc        1 MOL      0.074049
     35 H16        -2.3410   -5.6740    0.7810 hc        1 MOL      0.088664
     36 H17        -2.0050   -5.3640   -0.8820 hc        1 MOL      0.088664
     37 H18        -1.9630   -7.0930   -0.2610 hc        1 MOL      0.088664
     38 N3          3.1690   -3.8650   -2.2210 n         1 MOL     -0.342494
     39 C13         3.8720   -3.3200   -3.4090 c3        1 MOL      0.075727
     40 C14         5.3170   -2.7930   -3.0350 c         1 MOL      0.373594
     41 O6          6.0660   -2.4600   -3.9460 o         1 MOL     -0.541911
     42 C15         3.0410   -2.2650   -4.0810 c3        1 MOL     -0.258281
     43 C16         2.4810   -1.1420   -3.2410 c         1 MOL      0.727830
     44 O7          2.8970   -1.0040   -2.0460 o         1 MOL     -0.676564
     45 O8          1.5310   -0.4370   -3.5660 o         1 MOL     -0.676564
     46 H19         2.6840   -3.2450   -1.5810 hn        1 MOL      0.215983
     47 H20         4.0560   -4.2030   -4.0180 h1        1 MOL      0.083089
     48 H21         2.2580   -2.8060   -4.6000 hc        1 MOL      0.067678
     49 H22         3.6790   -1.8690   -4.8710 hc        1 MOL      0.067678
     50 N4          5.6330   -2.6600   -1.7480 n         1 MOL     -0.082137
     51 C17         7.0240   -2.4100   -1.3380 c3        1 MOL     -0.255753
     52 C18         7.4800   -0.9060   -1.6220 c         1 MOL      0.634981
     53 O9          8.6310   -0.6740   -1.7280 o         1 MOL     -0.581899
     54 H23         4.9320   -2.9660   -1.0830 hn        1 MOL      0.163001
     55 H24         7.6740   -3.1680   -1.7630 h1        1 MOL      0.109204
     56 H25         7.0000   -2.5630   -0.2580 h1        1 MOL      0.109204
     57 N5          6.5910    0.0920   -1.6760 n         1 MOL     -0.451987
     58 C19         6.7480    1.3260   -2.3780 c3        1 MOL      0.190420
     59 C20         7.1820    2.5230   -1.4890 c         1 MOL      0.459766
     60 O10         7.9750    3.3820   -1.8860 o         1 MOL     -0.580490
     61 C21         5.4800    1.7330   -3.1350 c3        1 MOL     -0.296623
     62 C22         4.2600    2.0580   -2.2990 c         1 MOL      0.712785
     63 O11         4.2200    1.6090   -1.1380 o         1 MOL     -0.651693
     64 O12         3.2220    2.4960   -2.8560 o         1 MOL     -0.651693
     65 H26         5.6320   -0.1770   -1.4630 hn        1 MOL      0.256033
     66 H27         7.5410    1.3010   -3.1330 h1        1 MOL      0.048179
     67 H28         5.2480    0.8660   -3.7550 hc        1 MOL      0.074459
     68 H29         5.6500    2.6390   -3.7180 hc        1 MOL      0.074459
     69 N6          6.7560    2.4270   -0.2120 n         1 MOL     -0.230522
     70 C23         6.9210    3.4530    0.8380 c3        1 MOL     -0.047451
     71 C24         5.6890    4.3540    1.1030 c         1 MOL      0.457767
     72 O13         5.8710    5.4280    1.7350 o         1 MOL     -0.605514
     73 H30         6.1200    1.6580   -0.0720 hn        1 MOL      0.140458
     74 H31         7.8000    4.0790    0.6800 h1        1 MOL      0.069629
     75 H32         7.1120    2.8840    1.7360 h1        1 MOL      0.069629
     76 N7          4.4410    4.0060    0.7290 n         1 MOL     -0.228335
     77 C25         3.1220    4.7220    1.0820 c3        1 MOL      0.021700
     78 C26         2.0470    3.6530    1.4580 c         1 MOL      0.443226
     79 O14         2.3380    2.5080    1.3790 o         1 MOL     -0.455991
     80 C27         2.5680    5.5690   -0.1210 c3        1 MOL     -0.149693
     81 C28         3.6010    6.5240   -0.6880 c3        1 MOL     -0.270564
     82 C29         2.8930    7.4580   -1.6740 c         1 MOL      0.698884
     83 N8          3.6340    8.3840   -2.1930 n         1 MOL     -0.798167
     84 O15         1.6920    7.3920   -1.9680 o         1 MOL     -0.567183
     85 H33         4.4140    3.1970    0.1310 hn        1 MOL      0.173690
     86 H34         3.2470    5.3350    1.9790 h1        1 MOL      0.065201
     87 H35         1.6910    6.1420    0.1800 hc        1 MOL      0.088859
     88 H36         2.2050    5.0620   -1.0220 hc        1 MOL      0.088859
     89 H37         4.3360    5.9700   -1.2790 hc        1 MOL      0.099089
     90 H38         4.1120    7.1680    0.0220 hc        1 MOL      0.099089
     91 H39         4.6020    8.4040   -1.9220 hn        1 MOL      0.348177
     92 H40         3.2510    9.1580   -2.7180 hn        1 MOL      0.348177
     93 N9          0.9040    4.1350    1.9810 n         1 MOL     -0.448941
     94 C30        -0.1800    3.2300    2.3260 c3        1 MOL      0.008806
     95 C31        -1.3790    3.3180    1.2850 c         1 MOL      0.441043
     96 O16        -2.1430    4.3000    1.3050 o         1 MOL     -0.557962
     97 C32        -0.7690    3.4400    3.7150 c3        1 MOL      0.361588
     98 C33        -1.5210    2.1780    4.2110 c3        1 MOL     -0.417870
     99 C34         0.2660    3.6010    4.8360 c3        1 MOL     -0.417870
    100 H41         0.7220    5.1220    2.0810 hn        1 MOL      0.300180
    101 H42         0.1670    2.1940    2.3290 h1        1 MOL      0.092939
    102 H43        -1.4390    4.2880    3.7450 hc        1 MOL     -0.051825
    103 H44        -2.1490    2.3270    5.0990 hc        1 MOL      0.092133
    104 H45        -2.2350    1.9470    3.4150 hc        1 MOL      0.092133
    105 H46        -0.7860    1.4160    4.4420 hc        1 MOL      0.092133
    106 H47        -0.2580    3.6370    5.7940 hc        1 MOL      0.092133
    107 H48         0.8950    2.7190    4.8930 hc        1 MOL      0.092133
    108 H49         0.8060    4.5390    4.6650 hc        1 MOL      0.092133
    109 N10        -1.5240    2.2470    0.4840 n         1 MOL     -0.127741
    110 C35        -2.6050    2.1840   -0.4770 c3        1 MOL     -0.177982
    111 C36        -3.9870    2.0640    0.2590 c         1 MOL      0.275708
    112 O17        -4.0950    1.4350    1.2750 o         1 MOL     -0.217784
    113 C37        -2.3920    1.0130   -1.4390 c3        1 MOL     -0.255506
    114 C38        -3.4510    0.6880   -2.4720 c         1 MOL      0.705353
    115 N11        -3.7200    1.4800   -3.4530 n         1 MOL     -0.715356
    116 O18        -3.8980   -0.4470   -2.4050 o         1 MOL     -0.503824
    117 H50        -0.8190    1.5300    0.4750 hn        1 MOL      0.156183
    118 H51        -2.6630    3.0270   -1.1570 h1        1 MOL      0.101428
    119 H52        -2.2470    0.1710   -0.7700 hc        1 MOL      0.133940
    120 H53        -1.4520    1.1530   -1.9730 hc        1 MOL      0.133940
    121 H54        -3.2750    2.3940   -3.4720 hn        1 MOL      0.342053
    122 H55        -4.5170    1.3030   -4.0460 hn        1 MOL      0.342053
    123 N12        -5.0420    2.4150   -0.4260 n         1 MOL     -0.254630
    124 C39        -6.4390    2.0300   -0.1910 c3        1 MOL      0.161718
    125 C40        -6.7840    0.5710    0.2260 c         1 MOL      0.595347
    126 O19        -7.4020    0.3020    1.2550 o         1 MOL     -0.579667
    127 C41        -7.2090    2.6070   -1.4280 c3        1 MOL     -0.125525
    128 C42        -8.6450    2.3600   -1.5110 ca        1 MOL      0.104550
    129 C43        -9.4260    2.9840   -0.5310 ca        1 MOL     -0.283402
    130 C44        -9.2350    1.5750   -2.5290 ca        1 MOL     -0.283402
    131 C45       -10.8010    2.7960   -0.5280 ca        1 MOL     -0.090876
    132 C46       -10.6560    1.4080   -2.4960 ca        1 MOL     -0.090876
    133 C47       -11.4170    1.9720   -1.5260 ca        1 MOL      0.173492
    134 O20       -12.7300    1.6850   -1.4270 oh        1 MOL     -0.473667
    135 H56        -4.8440    2.9370   -1.2630 hn        1 MOL      0.174864
    136 H57        -6.7820    2.5590    0.6910 h1        1 MOL     -0.011047
    137 H58        -6.7000    2.2610   -2.3220 hc        1 MOL      0.039439
    138 H59        -7.0750    3.6910   -1.3620 hc        1 MOL      0.039439
    139 H60        -8.9340    3.5820    0.2190 ha        1 MOL      0.177514
    140 H61        -8.6470    1.1700   -3.3380 ha        1 MOL      0.177514
    141 H62       -11.3840    3.3610    0.1830 ha        1 MOL      0.102299
    142 H63       -11.0540    0.9210   -3.3750 ha        1 MOL      0.102299
    143 H64       -12.8640    1.0240   -2.1160 ho        1 MOL      0.361590
    144 N13        -6.2320   -0.4330   -0.4990 n         1 MOL     -0.280431
    145 C48        -6.4200   -1.8560   -0.0460 c3        1 MOL     -0.002693
    146 C49        -5.4580   -2.3050    1.1230 c         1 MOL      0.310757
    147 O21        -5.7070   -3.3410    1.7920 o         1 MOL     -0.514525
    148 C50        -6.2430   -2.8400   -1.1460 c3        1 MOL     -0.091589
    149 C51        -7.1610   -2.5410   -2.3430 c3        1 MOL     -0.210726
    150 C52        -6.6780   -3.1800   -3.7440 c         1 MOL      0.691962
    151 O22        -6.5350   -2.3160   -4.6740 o         1 MOL     -0.727727
    152 O23        -6.6760   -4.4150   -3.9080 o         1 MOL     -0.727727
    153 H65        -5.6090   -0.2990   -1.2880 hn        1 MOL      0.167631
    154 H66        -7.4390   -2.0340    0.2850 h1        1 MOL      0.099629
    155 H67        -6.4050   -3.8010   -0.6580 hc        1 MOL      0.064640
    156 H68        -5.2120   -2.8570   -1.4800 hc        1 MOL      0.064640
    157 H69        -7.2170   -1.4570   -2.4300 hc        1 MOL      0.016878
    158 H70        -8.2070   -2.7470   -2.0990 hc        1 MOL      0.016878
    159 N14        -4.3760   -1.5820    1.3320 n         1 MOL      0.014513
    160 C53        -3.5610   -1.8600    2.4880 c3        1 MOL     -0.079781
    161 C54        -4.1100   -1.2590    3.7840 c         1 MOL      0.436216
    162 O24        -4.0870   -1.8690    4.8850 o         1 MOL     -0.566301
    163 C55        -2.0810   -1.3930    2.2950 c3        1 MOL     -0.072607
    164 C56        -1.3810   -1.9720    1.0530 c3        1 MOL     -0.187090
    165 C57        -0.0110   -1.2910    0.8050 c         1 MOL      0.639972
    166 O25         0.9970   -1.9770    0.4270 o         1 MOL     -0.639653
    167 O26         0.0990   -0.0370    0.9490 o         1 MOL     -0.639653
    168 H71        -4.0760   -0.7700    0.8110 hn        1 MOL      0.024652
    169 H72        -3.5560   -2.9340    2.6640 h1        1 MOL      0.076878
    170 H73        -1.5940   -1.6680    3.2350 hc        1 MOL      0.076337
    171 H74        -2.1120   -0.3020    2.3070 hc        1 MOL      0.076337
    172 H75        -1.9790   -1.8740    0.1420 hc        1 MOL      0.072692
    173 H76        -1.3570   -3.0560    1.0210 hc        1 MOL      0.072692
    174 N15        -4.6160   -0.0200    3.5930 n         1 MOL     -0.034508
    175 C58        -5.3460    0.8350    4.6570 c3        1 MOL     -0.195653
    176 H77        -5.9480    1.5960    4.1600 h1        1 MOL      0.082320
    177 H78        -5.9930    0.1960    5.2570 h1        1 MOL      0.082320
    178 H79        -4.6120    1.3170    5.3020 h1        1 MOL      0.082320
    179 H80        -4.3880    0.3670    2.6890 hn        1 MOL     -0.042992
    180 Ca1         2.7330    0.0260    0.2610 Ca        1 MOL      1.632836
    181 O27         2.3100   -0.0910    2.8510 oh        1 MOL     -0.813718
    182 H81         2.8940    0.3950    3.4380 ho        1 MOL      0.386294
    183 H82         1.8230   -0.6660    3.4300 ho        1 MOL      0.386294
    184 O28         1.2400    1.5740   -1.5380 oh        1 MOL     -0.813718
    185 H83         1.1860    0.9080   -2.2330 ho        1 MOL      0.386294
    186 H84         1.9030    2.1830   -1.8400 ho        1 MOL      0.386294
    187 O29         4.8900    0.8480    1.8460 oh        1 MOL     -0.813718
    188 H85         4.6910    1.2130    2.7030 ho        1 MOL      0.386294
    189 H86         5.3460    0.0310    2.0280 ho        1 MOL      0.386294
@<TRIPOS>BOND
     1    1    2 1   
     2    1    4 1   
     3    1    5 1   
     4    1    6 1   
     5    2    3 2   
     6    2    7 1   
     7    7    8 1   
     8    7   15 1   
     9    8    9 1   
    10    8   11 1   
    11    8   16 1   
    12    9   10 2   
    13    9   19 1   
    14   11   12 1   
    15   11   17 1   
    16   11   18 1   
    17   12   13 1   
    18   12   14 1   
    19   19   20 1   
    20   19   27 1   
    21   20   21 1   
    22   20   23 1   
    23   20   28 1   
    24   21   22 2   
    25   21   38 1   
    26   23   24 1   
    27   23   25 1   
    28   23   29 1   
    29   24   26 1   
    30   24   30 1   
    31   24   31 1   
    32   25   32 1   
    33   25   33 1   
    34   25   34 1   
    35   26   35 1   
    36   26   36 1   
    37   26   37 1   
    38   38   39 1   
    39   38   46 1   
    40   39   40 1   
    41   39   42 1   
    42   39   47 1   
    43   40   41 2   
    44   40   50 1   
    45   42   43 1   
    46   42   48 1   
    47   42   49 1   
    48   43   44 1   
    49   43   45 1   
    50   50   51 1   
    51   50   54 1   
    52   51   52 1   
    53   51   55 1   
    54   51   56 1   
    55   52   53 2   
    56   52   57 1   
    57   57   58 1   
    58   57   65 1   
    59   58   59 1   
    60   58   61 1   
    61   58   66 1   
    62   59   60 2   
    63   59   69 1   
    64   61   62 1   
    65   61   67 1   
    66   61   68 1   
    67   62   63 1   
    68   62   64 1   
    69   69   70 1   
    70   69   73 1   
    71   70   71 1   
    72   70   74 1   
    73   70   75 1   
    74   71   72 2   
    75   71   76 1   
    76   76   77 1   
    77   76   85 1   
    78   77   78 1   
    79   77   80 1   
    80   77   86 1   
    81   78   79 2   
    82   78   93 1   
    83   80   81 1   
    84   80   87 1   
    85   80   88 1   
    86   81   82 1   
    87   81   89 1   
    88   81   90 1   
    89   82   83 1   
    90   82   84 2   
    91   83   91 1   
    92   83   92 1   
    93   93   94 1   
    94   93  100 1   
    95   94   95 1   
    96   94   97 1   
    97   94  101 1   
    98   95   96 2   
    99   95  109 1   
   100   97   98 1   
   101   97   99 1   
   102   97  102 1   
   103   98  103 1   
   104   98  104 1   
   105   98  105 1   
   106   99  106 1   
   107   99  107 1   
   108   99  108 1   
   109  109  110 1   
   110  109  117 1   
   111  110  111 1   
   112  110  113 1   
   113  110  118 1   
   114  111  112 2   
   115  111  123 1   
   116  113  114 1   
   117  113  119 1   
   118  113  120 1   
   119  114  115 1   
   120  114  116 2   
   121  115  121 1   
   122  115  122 1   
   123  123  124 1   
   124  123  135 1   
   125  124  125 1   
   126  124  127 1   
   127  124  136 1   
   128  125  126 2   
   129  125  144 1   
   130  127  128 1   
   131  127  137 1   
   132  127  138 1   
   133  128  129 ar  
   134  128  130 ar  
   135  129  131 ar  
   136  129  139 1   
   137  130  132 ar  
   138  130  140 1   
   139  131  133 ar  
   140  131  141 1   
   141  132  133 ar  
   142  132  142 1   
   143  133  134 1   
   144  134  143 1   
   145  144  145 1   
   146  144  153 1   
   147  145  146 1   
   148  145  148 1   
   149  145  154 1   
   150  146  147 2   
   151  146  159 1   
   152  148  149 1   
   153  148  155 1   
   154  148  156 1   
   155  149  150 1   
   156  149  157 1   
   157  149  158 1   
   158  150  151 1   
   159  150  152 1   
   160  159  160 1   
   161  159  168 1   
   162  160  161 1   
   163  160  163 1   
   164  160  169 1   
   165  161  162 2   
   166  161  174 1   
   167  163  164 1   
   168  163  170 1   
   169  163  171 1   
   170  164  165 1   
   171  164  172 1   
   172  164  173 1   
   173  165  166 1   
   174  165  167 1   
   175  174  175 1   
   176  174  179 1   
   177  175  176 1   
   178  175  177 1   
   179  175  178 1   
   180  181  182 1   
   181  181  183 1   
   182  184  185 1   
   183  184  186 1   
   184  187  188 1   
   185  187  189 1   
@<TRIPOS>SUBSTRUCTURE
     1 MOL         1 TEMP              0 ****  ****    0 ROOT
