@<TRIPOS>MOLECULE
MOL
  179   176     1     0     0
SMALL
resp


@<TRIPOS>ATOM
      1 C1          1.8060   -4.1180    6.7000 c3        1 MOL     -0.359110
      2 C2          1.1620   -3.8210    5.3310 c         1 MOL      0.723116
      3 O1          0.0580   -4.2380    5.0090 o         1 MOL     -0.561785
      4 H1          1.0580   -4.5420    7.3690 hc        1 MOL      0.096300
      5 H2          2.6230   -4.8280    6.5720 hc        1 MOL      0.096300
      6 H3          2.1920   -3.1930    7.1290 hc        1 MOL      0.096300
      7 N1          1.9220   -3.1520    4.4360 n         1 MOL     -0.632051
      8 C3          1.4310   -2.7280    3.0950 c3        1 MOL     -0.015194
      9 C4          1.3040   -3.8650    2.0370 c         1 MOL      0.768537
     10 O2          2.1180   -4.7760    2.0400 o         1 MOL     -0.543427
     11 C5          2.3310   -1.6640    2.5290 c3        1 MOL      0.142688
     12 C6          1.9330   -1.0890    1.1960 c         1 MOL      0.429549
     13 O3          0.7010   -1.1830    0.7690 o         1 MOL     -0.666964
     14 O4          2.8290   -0.7890    0.4470 o         1 MOL     -0.666964
     15 H4          2.7600   -2.6640    4.7360 hn        1 MOL      0.321042
     16 H5          0.4020   -2.3780    3.2140 h1        1 MOL      0.041118
     17 H6          3.3570   -2.0090    2.5770 hc        1 MOL     -0.001951
     18 H7          2.3190   -0.8310    3.2330 hc        1 MOL     -0.001951
     19 N2          0.3690   -3.7750    1.0930 n         1 MOL     -0.570040
     20 C7         -0.2030   -4.9430    0.3300 c3        1 MOL     -0.059252
     21 C8          0.8780   -5.5650   -0.5540 c         1 MOL      0.553109
     22 O5          0.9050   -6.7660   -0.7050 o         1 MOL     -0.572061
     23 C9         -1.3760   -4.4860   -0.5640 c3        1 MOL      0.122091
     24 C10        -2.1750   -5.7330   -0.8930 c3        1 MOL     -0.137890
     25 C11        -3.4670   -5.2880   -1.5640 c3        1 MOL      0.134070
     26 C12        -4.3840   -6.4090   -1.9960 c3        1 MOL      0.039781
     27 N3         -5.7150   -5.9210   -2.2400 n4        1 MOL     -0.332052
     28 H8          0.0340   -2.8300    1.0570 hn        1 MOL      0.274657
     29 H9         -0.5670   -5.7120    1.0090 h1        1 MOL      0.119099
     30 H10        -0.9560   -4.0200   -1.4560 hc        1 MOL      0.015745
     31 H11        -2.0390   -3.8000   -0.0350 hc        1 MOL      0.015745
     32 H12        -2.4260   -6.3630   -0.0410 hc        1 MOL      0.034470
     33 H13        -1.6450   -6.3160   -1.6390 hc        1 MOL      0.034470
     34 H14        -3.2850   -4.5720   -2.3650 hc        1 MOL     -0.005750
     35 H15        -4.0570   -4.7770   -0.8000 hc        1 MOL     -0.005750
     36 H16        -4.4020   -7.1460   -1.1970 hx        1 MOL      0.068834
     37 H17        -4.0390   -6.8920   -2.9110 hx        1 MOL      0.068834
     38 H18        -6.3810   -6.6660   -2.4120 hn        1 MOL      0.320915
     39 H19        -6.1110   -5.5700   -1.3770 hn        1 MOL      0.320915
     40 H20        -5.7740   -5.1500   -2.8910 hn        1 MOL      0.320915
     41 N4          1.9040   -4.8050   -0.9590 n         1 MOL     -0.260101
     42 C13         3.0620   -5.0910   -1.8690 c3        1 MOL     -0.041240
     43 C14         4.3820   -4.5730   -1.2100 c         1 MOL      0.412255
     44 O6          5.4290   -4.7090   -1.8190 o         1 MOL     -0.529396
     45 C15         3.0210   -4.5130   -3.2980 c3        1 MOL     -0.085265
     46 C16         2.8180   -3.0170   -3.3400 c         1 MOL      0.694821
     47 O7          2.9140   -2.3950   -4.4050 o         1 MOL     -0.703311
     48 O8          2.5600   -2.3840   -2.3080 o         1 MOL     -0.703311
     49 H21         1.7790   -3.8090   -0.9000 hn        1 MOL      0.192714
     50 H22         3.1910   -6.1640   -2.0170 h1        1 MOL      0.111263
     51 H23         2.1230   -4.9530   -3.7220 hc        1 MOL      0.049109
     52 H24         3.7200   -4.9890   -3.9970 hc        1 MOL      0.049109
     53 N5          4.2160   -3.8670   -0.0640 n         1 MOL      0.007446
     54 C17         5.3420   -3.3560    0.7140 c3        1 MOL     -0.363294
     55 C18         5.9230   -2.0600    0.2450 c         1 MOL      0.575461
     56 O9          6.9620   -1.7450    0.8240 o         1 MOL     -0.581890
     57 H25         3.2870   -3.7700    0.3120 hn        1 MOL     -0.006627
     58 H26         6.1160   -4.1070    0.5460 h1        1 MOL      0.150252
     59 H27         5.0540   -3.1650    1.7440 h1        1 MOL      0.150252
     60 N6          5.3850   -1.4500   -0.7630 n         1 MOL     -0.241003
     61 C19         6.0240   -0.2720   -1.3620 c3        1 MOL      0.015367
     62 C20         6.1280    0.9570   -0.3940 c         1 MOL      0.333263
     63 O10         6.8340    1.8980   -0.7570 o         1 MOL     -0.456533
     64 C21         5.1350    0.0220   -2.6510 c3        1 MOL     -0.415228
     65 C22         4.3210    1.2290   -2.5840 c         1 MOL      0.702538
     66 N7          4.3370    2.0610   -3.6090 n         1 MOL     -0.724478
     67 O11         3.5330    1.4200   -1.6900 o         1 MOL     -0.633003
     68 H28         4.4960   -1.8000   -1.0730 hn        1 MOL      0.237901
     69 H29         7.0540   -0.5230   -1.6340 h1        1 MOL      0.109555
     70 H30         4.5880   -0.8560   -2.9750 hc        1 MOL      0.159405
     71 H31         5.9290    0.2800   -3.3560 hc        1 MOL      0.159405
     72 H32         4.9050    1.9920   -4.4400 hn        1 MOL      0.351419
     73 H33         3.7370    2.8750   -3.5850 hn        1 MOL      0.351419
     74 N8          5.4320    0.8900    0.7920 n         1 MOL     -0.055240
     75 C23         5.6460    1.7380    1.9530 c3        1 MOL     -0.354055
     76 C24         4.5930    2.8980    1.9520 c         1 MOL      0.593829
     77 O12         4.6670    3.7830    2.8240 o         1 MOL     -0.585540
     78 H34         4.7760    0.1370    0.9730 hn        1 MOL      0.177530
     79 H35         6.6530    2.1490    1.8340 h1        1 MOL      0.154451
     80 H36         5.5560    1.2550    2.9240 h1        1 MOL      0.154451
     81 N9          3.6620    2.9090    1.0210 n         1 MOL     -0.345012
     82 C25         2.4490    3.7330    0.9770 c3        1 MOL      0.249790
     83 C26         1.0990    2.9590    0.9140 c         1 MOL      0.168294
     84 O13         1.0510    1.9870    0.1480 o         1 MOL     -0.268604
     85 C27         2.6500    4.8640   -0.0180 c3        1 MOL      0.240073
     86 C28         3.9420    5.5820   -0.1930 ca        1 MOL     -0.116434
     87 C29         4.7820    5.1440   -1.2100 ca        1 MOL     -0.095581
     88 C30         4.2820    6.6750    0.6140 ca        1 MOL     -0.095581
     89 C31         6.0720    5.6450   -1.2370 ca        1 MOL     -0.278349
     90 C32         5.5990    7.1980    0.4560 ca        1 MOL     -0.278349
     91 C33         6.5330    6.6490   -0.3990 ca        1 MOL      0.405481
     92 O14         7.8580    7.0940   -0.3700 oh        1 MOL     -0.511838
     93 H37         3.7920    2.1860    0.3250 hn        1 MOL      0.224992
     94 H38         2.3090    4.2750    1.9090 h1        1 MOL     -0.015471
     95 H39         1.8180    5.5490    0.0970 hc        1 MOL     -0.076385
     96 H40         2.4130    4.3730   -0.9670 hc        1 MOL     -0.076385
     97 H41         4.3930    4.2810   -1.7320 ha        1 MOL      0.110230
     98 H42         3.5170    7.2080    1.1550 ha        1 MOL      0.110230
     99 H43         6.6180    5.3010   -2.1050 ha        1 MOL      0.141678
    100 H44         5.8900    7.9790    1.1430 ha        1 MOL      0.141678
    101 H45         7.9620    7.5440    0.4770 ho        1 MOL      0.363415
    102 N10         0.0360    3.2920    1.6720 n         1 MOL     -0.390690
    103 C34        -1.2160    2.5650    1.6890 c3        1 MOL     -0.093478
    104 C35        -2.3130    3.4930    1.2100 c         1 MOL      0.559651
    105 O15        -2.5690    4.5200    1.7900 o         1 MOL     -0.529846
    106 C36        -1.5140    1.9960    3.0430 c3        1 MOL      0.048307
    107 C37        -0.5020    0.8090    3.3610 c3        1 MOL      0.134219
    108 C38        -2.9390    1.5280    3.2580 c3        1 MOL     -0.106436
    109 C39        -0.7910    0.1540    4.7050 c3        1 MOL     -0.384307
    110 H46         0.0220    4.0760    2.3080 hn        1 MOL      0.316835
    111 H47        -1.1160    1.6780    1.0510 h1        1 MOL      0.047836
    112 H48        -1.2880    2.7360    3.8130 hc        1 MOL      0.014020
    113 H49         0.5340    1.1220    3.2960 hc        1 MOL      0.004090
    114 H50        -0.5550    0.0070    2.6170 hc        1 MOL      0.004090
    115 H51        -3.5830    2.3960    3.1020 hc        1 MOL      0.031563
    116 H52        -3.0600    0.7470    2.5140 hc        1 MOL      0.031563
    117 H53        -3.0860    1.0330    4.2160 hc        1 MOL      0.031563
    118 H54         0.1320   -0.2050    5.1500 hc        1 MOL      0.095265
    119 H55        -1.2900    0.7650    5.4660 hc        1 MOL      0.095265
    120 H56        -1.4070   -0.7110    4.4670 hc        1 MOL      0.095265
    121 N11        -2.9500    3.0380    0.1100 n         1 MOL     -0.331590
    122 C40        -4.0580    3.8900   -0.4870 c3        1 MOL      0.069610
    123 C41        -5.4360    3.4850    0.0400 c         1 MOL      0.407534
    124 O16        -5.6630    2.5430    0.7620 o         1 MOL     -0.358972
    125 C42        -4.1400    3.8600   -2.0250 c3        1 MOL     -0.068760
    126 O17        -4.2510    2.4740   -2.4400 oh        1 MOL     -0.431274
    127 H57        -2.6580    2.1850   -0.3370 hn        1 MOL      0.260314
    128 H58        -3.8950    4.9150   -0.1670 h1        1 MOL      0.070892
    129 H59        -3.2660    4.2900   -2.5090 h1        1 MOL      0.063604
    130 H60        -5.0270    4.3760   -2.4060 h1        1 MOL      0.063604
    131 H61        -3.7440    2.3970   -3.2470 ho        1 MOL      0.395541
    132 N12        -6.4170    4.3500   -0.2290 n         1 MOL     -0.419213
    133 C43        -7.8600    4.0600   -0.0210 c3        1 MOL      0.086612
    134 C44        -8.2500    2.6840   -0.5500 c         1 MOL      0.433449
    135 O18        -9.1810    2.0990    0.0350 o         1 MOL     -0.506500
    136 C45        -8.6430    5.2130   -0.7460 c3        1 MOL     -0.192012
    137 H62        -6.2000    5.2070   -0.7090 hn        1 MOL      0.288895
    138 H63        -8.1170    4.1380    1.0380 h1        1 MOL      0.098566
    139 H64        -9.7180    5.0380   -0.8060 hc        1 MOL      0.064597
    140 H65        -8.4680    6.2000   -0.3250 hc        1 MOL      0.064597
    141 H66        -8.1980    5.2530   -1.7410 hc        1 MOL      0.064597
    142 N13        -7.5760    2.0980   -1.5350 n         1 MOL     -0.382273
    143 C46        -7.8090    0.6950   -1.8880 c3        1 MOL      0.190837
    144 C47        -7.2500   -0.2890   -0.8790 c         1 MOL      0.293254
    145 O19        -7.8460   -1.2620   -0.3860 o         1 MOL     -0.494516
    146 C48        -7.2660    0.3900   -3.3490 c3        1 MOL     -0.326716
    147 H67        -6.8480    2.7110   -1.8580 hn        1 MOL      0.263950
    148 H68        -8.8810    0.5510   -1.9480 h1        1 MOL      0.084628
    149 H69        -7.1520   -0.6840   -3.4250 hc        1 MOL      0.092161
    150 H70        -8.0230    0.7220   -4.0510 hc        1 MOL      0.092161
    151 H71        -6.3000    0.8600   -3.5300 hc        1 MOL      0.092161
    152 N14        -5.8930   -0.1050   -0.5050 n         1 MOL      0.092508
    153 C49        -5.1530   -1.2010    0.0850 c3        1 MOL     -0.038338
    154 C50        -5.4390   -1.3020    1.6330 c         1 MOL      0.437588
    155 O20        -5.3860   -2.3590    2.1790 o         1 MOL     -0.548170
    156 C51        -3.6780   -0.8600   -0.0230 c3        1 MOL     -0.067783
    157 C52        -3.1210   -0.9840   -1.4450 c3        1 MOL     -0.062883
    158 C53        -1.6820   -0.6840   -1.6000 c         1 MOL      0.775711
    159 O21        -1.2450    0.4320   -1.3120 o         1 MOL     -0.757960
    160 O22        -0.8880   -1.4730   -2.1000 o         1 MOL     -0.757960
    161 H72        -5.3810    0.7140   -0.8110 hn        1 MOL     -0.143451
    162 H73        -5.3410   -2.1540   -0.4240 h1        1 MOL      0.008525
    163 H74        -3.0660   -1.5230    0.5930 hc        1 MOL      0.072863
    164 H75        -3.4910    0.1420    0.3650 hc        1 MOL      0.072863
    165 H76        -3.6660   -0.4750   -2.2360 hc        1 MOL     -0.015487
    166 H77        -3.1540   -2.0450   -1.7000 hc        1 MOL     -0.015487
    167 N15        -5.8480   -0.2230    2.2950 n         1 MOL     -0.042328
    168 C54        -6.2220   -0.1750    3.6960 c3        1 MOL     -0.282544
    169 H78        -7.2310   -0.5700    3.8160 h1        1 MOL      0.108441
    170 H79        -5.5250   -0.7760    4.2800 h1        1 MOL      0.108441
    171 H80        -6.1930    0.8570    4.0450 h1        1 MOL      0.108441
    172 H81        -5.8570    0.6500    1.7840 hn        1 MOL      0.102157
    173 Ca1         1.3140   -0.1210   -1.5440 Ca        1 MOL      1.722939
    174 O23         1.4900   -0.2450   -4.2530 oh        1 MOL     -0.839340
    175 H82         0.7970   -0.2680   -4.9110 ho        1 MOL      0.397023
    176 H83         2.0390   -1.0000   -4.4630 ho        1 MOL      0.397023
    177 O24         0.6330    2.2000   -2.7690 oh        1 MOL     -0.839340
    178 H84         0.0440    2.8710   -2.4210 ho        1 MOL      0.397023
    179 H85         1.4630    2.6640   -2.9160 ho        1 MOL      0.397023
@<TRIPOS>BOND
     1    1    2 1   
     2    1    4 1   
     3    1    5 1   
     4    1    6 1   
     5    2    3 2   
     6    2    7 1   
     7    7    8 1   
     8    7   15 1   
     9    8    9 1   
    10    8   11 1   
    11    8   16 1   
    12    9   10 2   
    13    9   19 1   
    14   11   12 1   
    15   11   17 1   
    16   11   18 1   
    17   12   13 1   
    18   12   14 1   
    19   19   20 1   
    20   19   28 1   
    21   20   21 1   
    22   20   23 1   
    23   20   29 1   
    24   21   22 2   
    25   21   41 1   
    26   23   24 1   
    27   23   30 1   
    28   23   31 1   
    29   24   25 1   
    30   24   32 1   
    31   24   33 1   
    32   25   26 1   
    33   25   34 1   
    34   25   35 1   
    35   26   27 1   
    36   26   36 1   
    37   26   37 1   
    38   27   38 1   
    39   27   39 1   
    40   27   40 1   
    41   41   42 1   
    42   41   49 1   
    43   42   43 1   
    44   42   45 1   
    45   42   50 1   
    46   43   44 2   
    47   43   53 1   
    48   45   46 1   
    49   45   51 1   
    50   45   52 1   
    51   46   47 1   
    52   46   48 1   
    53   53   54 1   
    54   53   57 1   
    55   54   55 1   
    56   54   58 1   
    57   54   59 1   
    58   55   56 2   
    59   55   60 1   
    60   60   61 1   
    61   60   68 1   
    62   61   62 1   
    63   61   64 1   
    64   61   69 1   
    65   62   63 2   
    66   62   74 1   
    67   64   65 1   
    68   64   70 1   
    69   64   71 1   
    70   65   66 1   
    71   65   67 2   
    72   66   72 1   
    73   66   73 1   
    74   74   75 1   
    75   74   78 1   
    76   75   76 1   
    77   75   79 1   
    78   75   80 1   
    79   76   77 2   
    80   76   81 1   
    81   81   82 1   
    82   81   93 1   
    83   82   83 1   
    84   82   85 1   
    85   82   94 1   
    86   83   84 2   
    87   83  102 1   
    88   85   86 1   
    89   85   95 1   
    90   85   96 1   
    91   86   87 ar  
    92   86   88 ar  
    93   87   89 ar  
    94   87   97 1   
    95   88   90 ar  
    96   88   98 1   
    97   89   91 ar  
    98   89   99 1   
    99   90   91 ar  
   100   90  100 1   
   101   91   92 1   
   102   92  101 1   
   103  102  103 1   
   104  102  110 1   
   105  103  104 1   
   106  103  106 1   
   107  103  111 1   
   108  104  105 2   
   109  104  121 1   
   110  106  107 1   
   111  106  108 1   
   112  106  112 1   
   113  107  109 1   
   114  107  113 1   
   115  107  114 1   
   116  108  115 1   
   117  108  116 1   
   118  108  117 1   
   119  109  118 1   
   120  109  119 1   
   121  109  120 1   
   122  121  122 1   
   123  121  127 1   
   124  122  123 1   
   125  122  125 1   
   126  122  128 1   
   127  123  124 2   
   128  123  132 1   
   129  125  126 1   
   130  125  129 1   
   131  125  130 1   
   132  126  131 1   
   133  132  133 1   
   134  132  137 1   
   135  133  134 1   
   136  133  136 1   
   137  133  138 1   
   138  134  135 2   
   139  134  142 1   
   140  136  139 1   
   141  136  140 1   
   142  136  141 1   
   143  142  143 1   
   144  142  147 1   
   145  143  144 1   
   146  143  146 1   
   147  143  148 1   
   148  144  145 2   
   149  144  152 1   
   150  146  149 1   
   151  146  150 1   
   152  146  151 1   
   153  152  153 1   
   154  152  161 1   
   155  153  154 1   
   156  153  156 1   
   157  153  162 1   
   158  154  155 2   
   159  154  167 1   
   160  156  157 1   
   161  156  163 1   
   162  156  164 1   
   163  157  158 1   
   164  157  165 1   
   165  157  166 1   
   166  158  159 1   
   167  158  160 1   
   168  167  168 1   
   169  167  172 1   
   170  168  169 1   
   171  168  170 1   
   172  168  171 1   
   173  174  175 1   
   174  174  176 1   
   175  177  178 1   
   176  177  179 1   
@<TRIPOS>SUBSTRUCTURE
     1 MOL         1 TEMP              0 ****  ****    0 ROOT
