@<TRIPOS>MOLECULE
MOL
  189   185     1     0     0
SMALL
resp


@<TRIPOS>ATOM
      1 C1          0.5740    2.7070    5.3930 c3        1 MOL     -0.316455
      2 C2         -0.0400    2.5180    3.9630 c         1 MOL      0.445022
      3 O1          0.6490    2.8130    2.9810 o         1 MOL     -0.519251
      4 H1          0.2620    1.8820    6.0340 hc        1 MOL      0.089094
      5 H2          1.6620    2.7210    5.3220 hc        1 MOL      0.089094
      6 H3          0.2240    3.6480    5.8170 hc        1 MOL      0.089094
      7 N1         -1.1940    1.8190    3.7850 n         1 MOL     -0.328029
      8 C3         -1.8410    1.6450    2.4680 c3        1 MOL      0.152094
      9 C4         -2.4300    3.0120    1.9990 c         1 MOL      0.221650
     10 O2         -3.5530    3.2620    2.3820 o         1 MOL     -0.456647
     11 C5         -2.9660    0.5840    2.6060 c3        1 MOL     -0.231731
     12 C6         -3.8270    0.4170    1.3660 c         1 MOL      0.693214
     13 O3         -3.3610    0.8040    0.2100 o         1 MOL     -0.608046
     14 O4         -4.8230   -0.2850    1.2990 o         1 MOL     -0.608046
     15 H4         -1.6060    1.4490    4.6230 hn        1 MOL      0.268156
     16 H5         -1.1180    1.3400    1.7130 h1        1 MOL     -0.020783
     17 H6         -3.5050    0.9930    3.4530 hc        1 MOL      0.060274
     18 H7         -2.4850   -0.3610    2.8850 hc        1 MOL      0.060274
     19 N2         -1.6470    3.8200    1.2890 n         1 MOL     -0.148374
     20 C7         -2.0460    5.1450    0.9120 c3        1 MOL      0.001068
     21 C8         -2.7660    5.2060   -0.4460 c         1 MOL      0.367631
     22 O5         -3.3310    6.2640   -0.7350 o         1 MOL     -0.547400
     23 C9         -0.7890    6.0740    0.8770 c3        1 MOL     -0.158822
     24 C10        -0.1530    6.4140    2.2520 c3        1 MOL     -0.022758
     25 C11         1.0030    7.3540    2.0430 c3        1 MOL      0.099629
     26 C12         1.7380    7.8990    3.2630 c3        1 MOL     -0.070527
     27 N3          2.3580    6.7920    4.0300 n4        1 MOL     -0.346687
     28 H8         -0.8180    3.3470    0.9720 hn        1 MOL      0.287914
     29 H9         -2.7750    5.5040    1.6450 h1        1 MOL      0.104392
     30 H10        -1.1120    7.0740    0.5780 hc        1 MOL      0.070376
     31 H11        -0.1230    5.6340    0.1320 hc        1 MOL      0.070376
     32 H12         0.2760    5.5200    2.7100 hc        1 MOL      0.018095
     33 H13        -0.8550    7.0060    2.8390 hc        1 MOL      0.018095
     34 H14         0.6880    8.1510    1.3650 hc        1 MOL      0.012213
     35 H15         1.7780    6.7460    1.5940 hc        1 MOL      0.012213
     36 H16         1.0470    8.4170    3.9280 hx        1 MOL      0.103023
     37 H17         2.4190    8.6390    2.8500 hx        1 MOL      0.103023
     38 H18         2.9370    7.2010    4.7520 hn        1 MOL      0.328639
     39 H19         1.6850    6.2290    4.5230 hn        1 MOL      0.328639
     40 H20         2.8680    6.1140    3.4850 hn        1 MOL      0.328639
     41 N4         -2.7110    4.2010   -1.3300 n         1 MOL     -0.205490
     42 C13        -3.6420    4.1320   -2.4760 c3        1 MOL      0.146516
     43 C14        -4.9940    3.4140   -2.1420 c         1 MOL      0.374689
     44 O6         -5.9710    3.6640   -2.8420 o         1 MOL     -0.503429
     45 C15        -3.0530    3.4980   -3.7780 c3        1 MOL     -0.343857
     46 C16        -2.1470    2.3560   -3.5540 c         1 MOL      0.845121
     47 O7         -2.5110    1.5550   -2.6870 o         1 MOL     -0.725442
     48 O8         -1.0160    2.3620   -4.0510 o         1 MOL     -0.725442
     49 H21        -2.2260    3.3390   -1.0960 hn        1 MOL      0.195069
     50 H22        -4.0220    5.0880   -2.8100 h1        1 MOL      0.059840
     51 H23        -2.3620    4.2200   -4.2130 hc        1 MOL      0.069462
     52 H24        -3.8380    3.2360   -4.4850 hc        1 MOL      0.069462
     53 N5         -5.0950    2.6360   -0.9910 n         1 MOL      0.063838
     54 C17        -6.3500    2.2720   -0.3200 c3        1 MOL     -0.084840
     55 C18        -7.0820    1.1320   -1.0800 c         1 MOL      0.471080
     56 O9         -8.1250    1.3460   -1.6950 o         1 MOL     -0.555807
     57 H25        -4.2330    2.5490   -0.4790 hn        1 MOL     -0.002942
     58 H26        -6.9520    3.1830   -0.2370 h1        1 MOL      0.046697
     59 H27        -6.0510    1.9370    0.6720 h1        1 MOL      0.046697
     60 N6         -6.4090   -0.0040   -1.1540 n         1 MOL     -0.216044
     61 C19        -6.8270   -1.2410   -1.8040 c3        1 MOL      0.135707
     62 C20        -6.9650   -2.4200   -0.7750 c         1 MOL      0.521993
     63 O10        -7.0470   -3.4670   -1.3040 o         1 MOL     -0.502807
     64 C21        -5.9130   -1.4850   -2.9640 c3        1 MOL     -0.445790
     65 C22        -4.4650   -1.6300   -2.6170 c         1 MOL      0.881596
     66 O11        -3.6110   -1.0570   -3.3530 o         1 MOL     -0.774036
     67 O12        -4.0880   -2.0350   -1.5090 o         1 MOL     -0.774036
     68 H28        -5.6070    0.0260   -0.5390 hn        1 MOL      0.013824
     69 H29        -7.8680   -1.1530   -2.1360 h1        1 MOL      0.061845
     70 H30        -6.1490   -0.6080   -3.5670 hc        1 MOL      0.132197
     71 H31        -6.2000   -2.4400   -3.4020 hc        1 MOL      0.132197
     72 N7         -6.9600   -2.2190    0.5430 n         1 MOL     -0.519287
     73 C23        -6.9960   -3.3060    1.5250 c3        1 MOL     -0.042437
     74 C24        -5.6980   -4.1450    1.6320 c         1 MOL      0.464602
     75 O13        -5.6910   -5.1510    2.3190 o         1 MOL     -0.561698
     76 H32        -6.6670   -1.3290    0.9230 hn        1 MOL      0.331788
     77 H33        -7.8030   -3.9580    1.2060 h1        1 MOL      0.094960
     78 H34        -7.2220   -2.9840    2.5400 h1        1 MOL      0.094960
     79 N8         -4.5980   -3.6970    0.9710 n         1 MOL     -0.056170
     80 C25        -3.3300   -4.4500    0.9520 c3        1 MOL     -0.494086
     81 C26        -2.1450   -3.5270    1.0520 c         1 MOL      0.852987
     82 O14        -2.0840   -2.4950    0.3790 o         1 MOL     -0.609289
     83 C27        -3.3300   -5.3490   -0.2850 c3        1 MOL      0.475978
     84 C28        -4.1450   -6.6940   -0.2060 c3        1 MOL     -0.471995
     85 O15        -3.7460   -4.6560   -1.4310 oh        1 MOL     -0.627782
     86 H35        -4.5880   -2.8540    0.4200 hn        1 MOL      0.102783
     87 H36        -3.2370   -5.0390    1.8640 h1        1 MOL      0.163998
     88 H37        -2.3540   -5.6480   -0.6760 h1        1 MOL     -0.009262
     89 H38        -3.9200   -3.7430   -1.1990 ho        1 MOL      0.464639
     90 H39        -4.2940   -7.1250   -1.1950 hc        1 MOL      0.125493
     91 H40        -3.6320   -7.4250    0.4160 hc        1 MOL      0.125493
     92 H41        -5.1560   -6.5070    0.1770 hc        1 MOL      0.125493
     93 N9         -1.0700   -3.9060    1.6630 n         1 MOL     -0.684040
     94 C29         0.1410   -3.1520    1.9340 c3        1 MOL     -0.001097
     95 C30         1.2580   -3.7390    0.9900 c         1 MOL      0.611876
     96 O16         1.4600   -4.9690    0.9830 o         1 MOL     -0.564155
     97 C31         0.5780   -3.1770    3.3710 c3        1 MOL      0.220518
     98 C32        -0.4940   -2.3000    4.0800 c3        1 MOL      0.270590
     99 C33         1.9620   -2.5780    3.4670 c3        1 MOL     -0.384660
    100 C34        -0.3990   -2.3000    5.6230 c3        1 MOL     -0.142860
    101 H42        -1.0890   -4.8350    2.0450 hn        1 MOL      0.305415
    102 H43         0.0110   -2.1110    1.6380 h1        1 MOL      0.109690
    103 H44         0.5620   -4.1730    3.8160 hc        1 MOL     -0.005307
    104 H45        -1.4720   -2.7380    3.8730 hc        1 MOL     -0.053471
    105 H46        -0.4330   -1.2430    3.8130 hc        1 MOL     -0.053471
    106 H47         2.0480   -1.5070    3.3250 hc        1 MOL      0.061131
    107 H48         2.0840   -2.7250    4.5400 hc        1 MOL      0.061131
    108 H49         2.7110   -3.1780    2.9420 hc        1 MOL      0.061131
    109 H50        -0.7080   -3.2900    5.9670 hc        1 MOL      0.014271
    110 H51         0.6200   -2.1490    5.9800 hc        1 MOL      0.014271
    111 H52        -1.1110   -1.5760    6.0260 hc        1 MOL      0.014271
    112 N10         2.0570   -2.8980    0.2170 n         1 MOL     -0.260570
    113 C35         3.1650   -3.3300   -0.6170 c3        1 MOL     -0.030884
    114 C36         4.4800   -3.0340    0.0460 c         1 MOL      0.395508
    115 O17         4.5420   -2.2610    0.9790 o         1 MOL     -0.339015
    116 C37         3.2470   -2.6780   -1.9950 c3        1 MOL     -0.030779
    117 C38         2.0320   -2.9540   -2.7660 c3        1 MOL     -0.117596
    118 O18         3.4250   -1.2450   -1.8450 oh        1 MOL     -0.448388
    119 H53         1.8590   -1.9190    0.3330 hn        1 MOL      0.178107
    120 H54         3.0540   -4.4160   -0.6890 h1        1 MOL      0.078266
    121 H55         4.1010   -3.0460   -2.5540 h1        1 MOL      0.108241
    122 H56         2.5370   -0.9420   -1.6390 ho        1 MOL      0.313296
    123 H57         1.1760   -2.4490   -2.3410 hc        1 MOL      0.063326
    124 H58         2.0640   -2.7420   -3.8360 hc        1 MOL      0.063326
    125 H59         1.8280   -4.0220   -2.8510 hc        1 MOL      0.063326
    126 N11         5.6190   -3.5960   -0.4390 n         1 MOL     -0.284552
    127 C39         6.9660   -3.2590    0.1020 c3        1 MOL     -0.348542
    128 C40         7.3130   -1.7410   -0.0900 c         1 MOL      0.451145
    129 O19         8.0140   -1.1020    0.6600 o         1 MOL     -0.462531
    130 C41         8.1120   -4.1170   -0.5720 c3        1 MOL      0.341897
    131 C42         8.0780   -5.6290   -0.1680 c3        1 MOL     -0.420297
    132 O20         7.9890   -3.9940   -1.9630 oh        1 MOL     -0.653519
    133 H60         5.4870   -4.1440   -1.2700 hn        1 MOL      0.266989
    134 H61         6.9750   -3.5960    1.1380 h1        1 MOL      0.199552
    135 H62         9.1140   -3.7220   -0.3640 h1        1 MOL      0.053136
    136 H63         8.6820   -4.5110   -2.3810 ho        1 MOL      0.426515
    137 H64         9.0220   -6.1060   -0.4370 hc        1 MOL      0.119357
    138 H65         7.8760   -5.7410    0.8990 hc        1 MOL      0.119357
    139 H66         7.2870   -6.1240   -0.7440 hc        1 MOL      0.119357
    140 N12         6.7530   -1.1650   -1.1800 n         1 MOL     -0.196197
    141 C43         6.8780    0.2270   -1.3520 c3        1 MOL     -0.090876
    142 C44         6.0910    1.0590   -0.3310 c         1 MOL      0.259141
    143 O21         6.6880    2.0410    0.1890 o         1 MOL     -0.501684
    144 C45         6.4560    0.6520   -2.7650 c3        1 MOL     -0.047914
    145 C46         6.7570    2.1310   -3.0860 c3        1 MOL     -0.027392
    146 C47         6.3200    2.2710   -4.5500 c3        1 MOL     -0.019525
    147 C48         7.0060    3.6120   -4.9630 c3        1 MOL      0.134727
    148 N13         6.5260    4.2340   -6.1750 n4        1 MOL     -0.449147
    149 H67         6.4690   -1.7520   -1.9520 hn        1 MOL      0.243925
    150 H68         7.9170    0.5730   -1.2740 h1        1 MOL      0.102801
    151 H69         5.4040    0.4470   -2.9380 hc        1 MOL      0.018907
    152 H70         6.9880   -0.0830   -3.3590 hc        1 MOL      0.018907
    153 H71         7.8290    2.3010   -2.9350 hc        1 MOL      0.051949
    154 H72         6.1950    2.8020   -2.4420 hc        1 MOL      0.051949
    155 H73         5.2330    2.2660   -4.6120 hc        1 MOL      0.038917
    156 H74         6.7040    1.4880   -5.1960 hc        1 MOL      0.038917
    157 H75         8.0870    3.5000   -4.9310 hx        1 MOL      0.045946
    158 H76         6.9180    4.2760   -4.1080 hx        1 MOL      0.045946
    159 H77         5.5670    4.5310   -6.1330 hn        1 MOL      0.339027
    160 H78         7.1260    5.0330   -6.2970 hn        1 MOL      0.339027
    161 H79         6.6310    3.6940   -7.0270 hn        1 MOL      0.339027
    162 N14         4.8910    0.6110    0.0750 n         1 MOL      0.046661
    163 C49         4.0560    1.3010    1.1420 c3        1 MOL     -0.251757
    164 C50         4.7500    1.2490    2.5140 c         1 MOL      0.416540
    165 O22         4.8140    2.2050    3.2580 o         1 MOL     -0.539224
    166 C51         2.7100    0.7470    1.2060 c3        1 MOL      0.029129
    167 C52         1.9400    1.3550   -0.0660 c3        1 MOL     -0.349660
    168 C53         0.5980    0.6990   -0.2470 c         1 MOL      0.909449
    169 O23         0.3560   -0.4830    0.0810 o         1 MOL     -0.783206
    170 O24        -0.3390    1.4090   -0.7320 o         1 MOL     -0.783206
    171 H80         4.4700   -0.1110   -0.4750 hn        1 MOL      0.149292
    172 H81         3.9870    2.3420    0.8050 h1        1 MOL      0.123779
    173 H82         2.2130    1.0650    2.1160 hc        1 MOL      0.075665
    174 H83         2.7430   -0.3370    1.1510 hc        1 MOL      0.075665
    175 H84         2.5750    1.1030   -0.9240 hc        1 MOL      0.074059
    176 H85         1.7710    2.4200    0.0940 hc        1 MOL      0.074059
    177 N15         5.4430    0.1020    2.8250 n         1 MOL     -0.028722
    178 C54         6.2650   -0.0620    4.0350 c3        1 MOL     -0.192188
    179 H86         5.8330   -0.8410    4.6640 h1        1 MOL      0.079759
    180 H87         7.2790   -0.3460    3.7520 h1        1 MOL      0.079759
    181 H88         6.2910    0.8770    4.5880 h1        1 MOL      0.079759
    182 H89         5.2620   -0.6910    2.2140 hn        1 MOL      0.091658
    183 Ca1        -1.8710   -0.5280   -1.3320 Ca        1 MOL      1.751447
    184 O25        -0.0260    0.0630   -3.3990 oh        1 MOL     -0.867001
    185 H90         0.1890   -0.3000   -4.2620 ho        1 MOL      0.393058
    186 H91        -0.4170    0.9220   -3.5940 ho        1 MOL      0.393058
    187 O26        -1.3310   -3.1310   -2.3340 oh        1 MOL     -0.867001
    188 H92        -1.0000   -3.3710   -3.2070 ho        1 MOL      0.393058
    189 H93        -2.0380   -3.7490   -2.1580 ho        1 MOL      0.393058
@<TRIPOS>BOND
     1    1    2 1   
     2    1    4 1   
     3    1    5 1   
     4    1    6 1   
     5    2    3 2   
     6    2    7 1   
     7    7    8 1   
     8    7   15 1   
     9    8    9 1   
    10    8   11 1   
    11    8   16 1   
    12    9   10 2   
    13    9   19 1   
    14   11   12 1   
    15   11   17 1   
    16   11   18 1   
    17   12   13 1   
    18   12   14 1   
    19   19   20 1   
    20   19   28 1   
    21   20   21 1   
    22   20   23 1   
    23   20   29 1   
    24   21   22 2   
    25   21   41 1   
    26   23   24 1   
    27   23   30 1   
    28   23   31 1   
    29   24   25 1   
    30   24   32 1   
    31   24   33 1   
    32   25   26 1   
    33   25   34 1   
    34   25   35 1   
    35   26   27 1   
    36   26   36 1   
    37   26   37 1   
    38   27   38 1   
    39   27   39 1   
    40   27   40 1   
    41   41   42 1   
    42   41   49 1   
    43   42   43 1   
    44   42   45 1   
    45   42   50 1   
    46   43   44 2   
    47   43   53 1   
    48   45   46 1   
    49   45   51 1   
    50   45   52 1   
    51   46   47 1   
    52   46   48 1   
    53   53   54 1   
    54   53   57 1   
    55   54   55 1   
    56   54   58 1   
    57   54   59 1   
    58   55   56 2   
    59   55   60 1   
    60   60   61 1   
    61   60   68 1   
    62   61   62 1   
    63   61   64 1   
    64   61   69 1   
    65   62   63 2   
    66   62   72 1   
    67   64   65 1   
    68   64   70 1   
    69   64   71 1   
    70   65   66 1   
    71   65   67 1   
    72   72   73 1   
    73   72   76 1   
    74   73   74 1   
    75   73   77 1   
    76   73   78 1   
    77   74   75 2   
    78   74   79 1   
    79   79   80 1   
    80   79   86 1   
    81   80   81 1   
    82   80   83 1   
    83   80   87 1   
    84   81   82 2   
    85   81   93 1   
    86   83   84 1   
    87   83   85 1   
    88   83   88 1   
    89   84   90 1   
    90   84   91 1   
    91   84   92 1   
    92   85   89 1   
    93   93   94 1   
    94   93  101 1   
    95   94   95 1   
    96   94   97 1   
    97   94  102 1   
    98   95   96 2   
    99   95  112 1   
   100   97   98 1   
   101   97   99 1   
   102   97  103 1   
   103   98  100 1   
   104   98  104 1   
   105   98  105 1   
   106   99  106 1   
   107   99  107 1   
   108   99  108 1   
   109  100  109 1   
   110  100  110 1   
   111  100  111 1   
   112  112  113 1   
   113  112  119 1   
   114  113  114 1   
   115  113  116 1   
   116  113  120 1   
   117  114  115 2   
   118  114  126 1   
   119  116  117 1   
   120  116  118 1   
   121  116  121 1   
   122  117  123 1   
   123  117  124 1   
   124  117  125 1   
   125  118  122 1   
   126  126  127 1   
   127  126  133 1   
   128  127  128 1   
   129  127  130 1   
   130  127  134 1   
   131  128  129 2   
   132  128  140 1   
   133  130  131 1   
   134  130  132 1   
   135  130  135 1   
   136  131  137 1   
   137  131  138 1   
   138  131  139 1   
   139  132  136 1   
   140  140  141 1   
   141  140  149 1   
   142  141  142 1   
   143  141  144 1   
   144  141  150 1   
   145  142  143 2   
   146  142  162 1   
   147  144  145 1   
   148  144  151 1   
   149  144  152 1   
   150  145  146 1   
   151  145  153 1   
   152  145  154 1   
   153  146  147 1   
   154  146  155 1   
   155  146  156 1   
   156  147  148 1   
   157  147  157 1   
   158  147  158 1   
   159  148  159 1   
   160  148  160 1   
   161  148  161 1   
   162  162  163 1   
   163  162  171 1   
   164  163  164 1   
   165  163  166 1   
   166  163  172 1   
   167  164  165 2   
   168  164  177 1   
   169  166  167 1   
   170  166  173 1   
   171  166  174 1   
   172  167  168 1   
   173  167  175 1   
   174  167  176 1   
   175  168  169 1   
   176  168  170 1   
   177  177  178 1   
   178  177  182 1   
   179  178  179 1   
   180  178  180 1   
   181  178  181 1   
   182  184  185 1   
   183  184  186 1   
   184  187  188 1   
   185  187  189 1   
@<TRIPOS>SUBSTRUCTURE
     1 MOL         1 TEMP              0 ****  ****    0 ROOT
