@<TRIPOS>MOLECULE
MOL
  189   185     1     0     0
SMALL
resp


@<TRIPOS>ATOM
      1 C1          1.4270   -4.3490    6.0220 c3        1 MOL     -0.401039
      2 C2          1.6780   -3.4720    4.7720 c         1 MOL      0.707072
      3 O1          1.9380   -2.2620    4.8260 o         1 MOL     -0.622470
      4 H1          1.3190   -5.3910    5.7200 hc        1 MOL      0.097498
      5 H2          2.2700   -4.2560    6.7070 hc        1 MOL      0.097498
      6 H3          0.5150   -4.0200    6.5210 hc        1 MOL      0.097498
      7 N1          1.7230   -4.2280    3.7010 n         1 MOL     -0.452336
      8 C3          2.1490   -4.0810    2.3510 c3        1 MOL      0.205826
      9 C4          1.4970   -5.1140    1.4370 c         1 MOL      0.318544
     10 O2          1.3680   -6.2480    1.8100 o         1 MOL     -0.539805
     11 C5          3.6760   -4.2220    2.2690 c3        1 MOL     -0.154992
     12 C6          4.1810   -3.7660    0.9450 c         1 MOL      0.634734
     13 O3          3.7700   -2.6120    0.6430 o         1 MOL     -0.613317
     14 O4          5.0210   -4.4650    0.3450 o         1 MOL     -0.613317
     15 H4          1.4020   -5.1480    3.9340 hn        1 MOL      0.252337
     16 H5          1.9760   -3.0740    1.9670 h1        1 MOL     -0.070730
     17 H6          3.8830   -5.2650    2.5010 hc        1 MOL      0.028313
     18 H7          4.1480   -3.7090    3.1090 hc        1 MOL      0.028313
     19 N2          1.4320   -4.7970    0.1890 n         1 MOL      0.036280
     20 C7          1.1480   -5.6900   -0.9430 c3        1 MOL     -0.152080
     21 C8          1.9520   -5.3170   -2.2170 c         1 MOL      0.436330
     22 O5          1.8960   -6.0560   -3.1710 o         1 MOL     -0.556707
     23 C9         -0.3520   -5.7410   -1.2960 c3        1 MOL      0.174329
     24 C10        -0.9490   -4.3900   -1.7530 c3        1 MOL     -0.003525
     25 C11        -1.1670   -6.2140   -0.0880 c3        1 MOL     -0.246359
     26 C12        -2.5340   -4.4260   -1.7400 c3        1 MOL     -0.232134
     27 H8          1.5480   -3.8150   -0.0120 hn        1 MOL      0.181298
     28 H9          1.4480   -6.7150   -0.7440 h1        1 MOL      0.112398
     29 H10        -0.5150   -6.5040   -2.0680 hc        1 MOL     -0.010517
     30 H11        -0.5290   -4.0770   -2.7010 hc        1 MOL      0.024311
     31 H12        -0.7260   -3.6200   -1.0110 hc        1 MOL      0.024311
     32 H13        -0.6000   -6.9780    0.4470 hc        1 MOL      0.049542
     33 H14        -1.3640   -5.3610    0.5630 hc        1 MOL      0.049542
     34 H15        -2.1110   -6.6920   -0.3710 hc        1 MOL      0.049542
     35 H16        -2.9800   -3.5590   -2.2380 hc        1 MOL      0.061419
     36 H17        -2.7730   -5.3030   -2.3410 hc        1 MOL      0.061419
     37 H18        -2.9180   -4.5540   -0.7290 hc        1 MOL      0.061419
     38 N3          2.6820   -4.1710   -2.2540 n         1 MOL     -0.059920
     39 C13         3.1190   -3.5870   -3.5320 c3        1 MOL     -0.092148
     40 C14         4.6220   -3.0260   -3.4430 c         1 MOL      0.396834
     41 O6          5.2450   -2.7720   -4.4330 o         1 MOL     -0.541269
     42 C15         2.1720   -2.4920   -4.0050 c3        1 MOL     -0.097346
     43 C16         2.0450   -1.2230   -3.1830 c         1 MOL      0.706366
     44 O7          2.8170   -1.0120   -2.1940 o         1 MOL     -0.687487
     45 O8          1.1050   -0.4550   -3.4600 o         1 MOL     -0.687487
     46 H19         2.7520   -3.5840   -1.4380 hn        1 MOL     -0.099279
     47 H20         3.1540   -4.4160   -4.2420 h1        1 MOL      0.104899
     48 H21         1.1340   -2.7930   -4.1300 hc        1 MOL      0.041840
     49 H22         2.3810   -2.2030   -5.0370 hc        1 MOL      0.041840
     50 N4          5.1830   -2.9820   -2.2190 n         1 MOL      0.070234
     51 C17         6.5480   -2.4970   -1.8530 c3        1 MOL     -0.569328
     52 C18         6.8670   -1.0360   -1.9100 c         1 MOL      0.566885
     53 O9          8.0450   -0.6610   -1.8440 o         1 MOL     -0.602682
     54 H23         4.6790   -3.2880   -1.4010 hn        1 MOL     -0.005718
     55 H24         7.2480   -2.8120   -2.6300 h1        1 MOL      0.206789
     56 H25         6.6590   -2.8010   -0.8190 h1        1 MOL      0.206789
     57 N5          5.9450   -0.1410   -2.1890 n         1 MOL     -0.097596
     58 C19         6.2430    1.2120   -2.8380 c3        1 MOL      0.044766
     59 C20         7.0330    2.0860   -1.8660 c         1 MOL      0.432787
     60 O10         8.0260    2.6710   -2.2880 o         1 MOL     -0.580873
     61 C21         5.0030    2.0140   -3.4100 c3        1 MOL     -0.127262
     62 C22         3.8730    2.2460   -2.3470 c         1 MOL      0.614381
     63 O11         3.8930    1.5710   -1.2800 o         1 MOL     -0.659203
     64 O12         3.0120    3.1050   -2.6360 o         1 MOL     -0.659203
     65 H26         5.0290   -0.5080   -2.3840 hn        1 MOL      0.139420
     66 H27         6.9470    1.0940   -3.6580 h1        1 MOL      0.043052
     67 H28         4.7210    1.3980   -4.2690 hc        1 MOL      0.046444
     68 H29         5.3490    2.9630   -3.8400 hc        1 MOL      0.046444
     69 N6          6.5760    2.1600   -0.6290 n         1 MOL     -0.035106
     70 C23         7.1750    2.9740    0.4140 c3        1 MOL     -0.069310
     71 C24         6.1560    3.8400    1.1740 c         1 MOL      0.493922
     72 O13         6.4800    4.7660    1.8660 o         1 MOL     -0.581067
     73 H30         5.7370    1.6060   -0.5530 hn        1 MOL     -0.087523
     74 H31         7.8130    3.7170   -0.0810 h1        1 MOL      0.061262
     75 H32         7.8600    2.3660    1.0110 h1        1 MOL      0.061262
     76 N7          4.8490    3.5580    0.9980 n         1 MOL     -0.213171
     77 C25         3.7010    4.2700    1.5310 c3        1 MOL      0.049446
     78 C26         2.4790    3.2980    1.7650 c         1 MOL      0.128226
     79 O14         2.5950    2.1890    1.3130 o         1 MOL     -0.213440
     80 C27         3.2170    5.3600    0.5210 c3        1 MOL     -0.080605
     81 C28         4.0830    6.5040    0.3230 c3        1 MOL     -0.238948
     82 C29         3.2980    7.5090   -0.5080 c         1 MOL      0.709610
     83 N8          3.4560    7.7220   -1.7610 n         1 MOL     -0.811031
     84 O15         2.5470    8.2080    0.1180 o         1 MOL     -0.610197
     85 H33         4.6230    2.6410    0.6480 hn        1 MOL      0.135863
     86 H34         3.9380    4.6890    2.5030 h1        1 MOL      0.063412
     87 H35         2.2590    5.7140    0.8930 hc        1 MOL      0.072346
     88 H36         3.0250    4.9600   -0.4750 hc        1 MOL      0.072346
     89 H37         5.0180    6.2360   -0.1790 hc        1 MOL      0.079346
     90 H38         4.3780    6.9560    1.2730 hc        1 MOL      0.079346
     91 H39         4.0900    7.1910   -2.3420 hn        1 MOL      0.367119
     92 H40         2.7970    8.3320   -2.2260 hn        1 MOL      0.367119
     93 N9          1.4280    3.7590    2.4340 n         1 MOL     -0.215655
     94 C30         0.2850    2.9020    2.6740 c3        1 MOL     -0.008579
     95 C31        -0.8740    3.2790    1.8280 c         1 MOL      0.428610
     96 O16        -1.4730    4.3340    2.0270 o         1 MOL     -0.568131
     97 C32        -0.0910    2.8610    4.2120 c3        1 MOL      0.246547
     98 C33        -1.1520    1.7920    4.4750 c3        1 MOL     -0.227768
     99 C34         1.1500    2.5550    5.0940 c3        1 MOL     -0.227768
    100 H41         1.4870    4.7120    2.7610 hn        1 MOL      0.246810
    101 H42         0.5330    1.8670    2.4490 h1        1 MOL      0.059677
    102 H43        -0.5110    3.8420    4.4430 hc        1 MOL     -0.036396
    103 H44        -1.5000    1.6720    5.4930 hc        1 MOL      0.043063
    104 H45        -2.0730    2.0020    3.9300 hc        1 MOL      0.043063
    105 H46        -0.8420    0.8310    4.0590 hc        1 MOL      0.043063
    106 H47         0.7910    2.5860    6.1230 hc        1 MOL      0.043063
    107 H48         1.6170    1.6050    4.8200 hc        1 MOL      0.043063
    108 H49         1.8760    3.3710    5.0230 hc        1 MOL      0.043063
    109 N10        -1.2690    2.4140    0.9020 n         1 MOL     -0.180306
    110 C35        -2.4650    2.5630    0.0430 c3        1 MOL     -0.042647
    111 C36        -3.7980    2.3130    0.7630 c         1 MOL      0.168278
    112 O17        -3.8950    1.5730    1.7590 o         1 MOL     -0.184997
    113 C37        -2.3070    1.5500   -1.0740 c3        1 MOL     -0.237034
    114 C38        -3.4440    1.4610   -2.0900 c         1 MOL      0.693714
    115 N11        -3.6410    2.4770   -2.9300 n         1 MOL     -0.747688
    116 O18        -4.3010    0.6610   -2.1170 o         1 MOL     -0.541174
    117 H50        -0.7140    1.5740    0.8410 hn        1 MOL      0.109635
    118 H51        -2.3620    3.5980   -0.2990 h1        1 MOL      0.106678
    119 H52        -2.1920    0.5690   -0.6200 hc        1 MOL      0.132600
    120 H53        -1.3780    1.7090   -1.6290 hc        1 MOL      0.132600
    121 H54        -3.1200    3.3360   -2.9310 hn        1 MOL      0.329469
    122 H55        -4.4360    2.3170   -3.5330 hn        1 MOL      0.329469
    123 N12        -4.9370    2.7920    0.2440 n         1 MOL     -0.144059
    124 C39        -6.2310    2.5100    0.8540 c3        1 MOL      0.045251
    125 C40        -6.5710    1.0170    0.9900 c         1 MOL      0.455456
    126 O19        -7.1820    0.7340    2.0330 o         1 MOL     -0.585034
    127 C41        -7.3210    3.4590    0.4090 c3        1 MOL     -0.055409
    128 C42        -7.6030    3.4570   -1.1370 ca        1 MOL     -0.107723
    129 C43        -8.3680    2.3460   -1.7050 ca        1 MOL     -0.106091
    130 C44        -6.9220    4.3270   -2.0150 ca        1 MOL     -0.106091
    131 C45        -8.3630    2.0900   -3.0970 ca        1 MOL     -0.299244
    132 C46        -7.0220    4.1290   -3.3840 ca        1 MOL     -0.299244
    133 C47        -7.6840    2.9520   -3.8930 ca        1 MOL      0.478935
    134 O20        -7.7050    2.7540   -5.2650 oh        1 MOL     -0.632801
    135 H56        -4.9090    3.3600   -0.5860 hn        1 MOL      0.138479
    136 H57        -6.1270    2.7270    1.9220 h1        1 MOL      0.041994
    137 H58        -7.0040    4.4900    0.5950 hc        1 MOL      0.051415
    138 H59        -8.2430    3.3830    0.9850 hc        1 MOL      0.051415
    139 H60        -8.9120    1.7230   -1.0060 ha        1 MOL      0.126969
    140 H61        -6.4030    5.1600   -1.5610 ha        1 MOL      0.126969
    141 H62        -8.8310    1.1920   -3.4620 ha        1 MOL      0.150345
    142 H63        -6.5470    4.8070   -4.0660 ha        1 MOL      0.150345
    143 H64        -7.8820    1.8550   -5.5570 ho        1 MOL      0.441478
    144 N13        -6.2420    0.1000    0.0880 n         1 MOL     -0.115536
    145 C48        -6.5180   -1.3310    0.3670 c3        1 MOL     -0.359707
    146 C49        -5.4670   -2.0950    1.1610 c         1 MOL      0.536255
    147 O21        -5.6050   -3.2680    1.4830 o         1 MOL     -0.535451
    148 C50        -6.7660   -1.9990   -0.9530 c3        1 MOL      0.110820
    149 C51        -7.9060   -1.5250   -1.8720 c3        1 MOL     -0.143886
    150 C52        -8.0510   -2.6670   -2.8640 c         1 MOL      0.618247
    151 O22        -7.6300   -2.4820   -4.0670 o         1 MOL     -0.720156
    152 O23        -8.5150   -3.7180   -2.3980 o         1 MOL     -0.720156
    153 H65        -5.7830    0.3690   -0.7730 hn        1 MOL      0.261046
    154 H66        -7.4620   -1.4500    0.9040 h1        1 MOL      0.168698
    155 H67        -6.9900   -3.0400   -0.7070 hc        1 MOL      0.038466
    156 H68        -5.8210   -1.9580   -1.5010 hc        1 MOL      0.038466
    157 H69        -7.7080   -0.5970   -2.4070 hc        1 MOL      0.003550
    158 H70        -8.8530   -1.3660   -1.3550 hc        1 MOL      0.003550
    159 N14        -4.4090   -1.3750    1.5610 n         1 MOL     -0.211008
    160 C53        -3.4330   -1.9260    2.5210 c3        1 MOL     -0.000226
    161 C54        -3.8570   -1.4320    3.9260 c         1 MOL      0.425974
    162 O24        -3.5820   -2.0600    4.9060 o         1 MOL     -0.577107
    163 C55        -2.0350   -1.3020    2.2460 c3        1 MOL      0.014369
    164 C56        -1.3710   -1.9400    1.0330 c3        1 MOL     -0.073261
    165 C57        -0.0460   -1.2370    0.7190 c         1 MOL      0.598807
    166 O25         0.1870   -0.0570    1.1060 o         1 MOL     -0.600165
    167 O26         0.7610   -1.8960    0.0200 o         1 MOL     -0.600165
    168 H71        -4.2700   -0.4240    1.2430 hn        1 MOL      0.032961
    169 H72        -3.3330   -3.0110    2.5290 h1        1 MOL      0.075668
    170 H73        -1.4600   -1.5810    3.1290 hc        1 MOL      0.037956
    171 H74        -2.1690   -0.2240    2.0950 hc        1 MOL      0.037956
    172 H75        -2.0820   -1.9330    0.2070 hc        1 MOL      0.020437
    173 H76        -1.1300   -2.9710    1.2610 hc        1 MOL      0.020437
    174 N15        -4.3000   -0.2070    4.0160 n         1 MOL     -0.052049
    175 C58        -4.4980    0.6070    5.2240 c3        1 MOL     -0.165046
    176 H77        -4.1190    1.6140    5.0490 h1        1 MOL      0.071708
    177 H78        -5.5610    0.6550    5.4610 h1        1 MOL      0.071708
    178 H79        -3.9600    0.1570    6.0580 h1        1 MOL      0.071708
    179 H80        -4.2540    0.2770    3.1280 hn        1 MOL      0.021003
    180 Ca1         2.7400   -0.2850    0.2210 Ca        1 MOL      1.716864
    181 O27         2.8230   -0.4640    2.9210 oh        1 MOL     -0.881892
    182 H81         2.2850   -1.0810    3.4200 ho        1 MOL      0.418604
    183 H82         3.5350   -0.2350    3.5150 ho        1 MOL      0.418604
    184 O28         5.0880    0.1380    1.6440 oh        1 MOL     -0.881892
    185 H83         6.0060    0.0220    1.4060 ho        1 MOL      0.418604
    186 H84         5.0600   -0.0290    2.5920 ho        1 MOL      0.418604
    187 O29         1.1810    1.3000   -1.3480 oh        1 MOL     -0.881892
    188 H85         1.8760    1.9600   -1.4230 ho        1 MOL      0.418604
    189 H86         1.1990    0.8390   -2.1880 ho        1 MOL      0.418604
@<TRIPOS>BOND
     1    1    2 1   
     2    1    4 1   
     3    1    5 1   
     4    1    6 1   
     5    2    3 2   
     6    2    7 1   
     7    7    8 1   
     8    7   15 1   
     9    8    9 1   
    10    8   11 1   
    11    8   16 1   
    12    9   10 2   
    13    9   19 1   
    14   11   12 1   
    15   11   17 1   
    16   11   18 1   
    17   12   13 1   
    18   12   14 1   
    19   19   20 1   
    20   19   27 1   
    21   20   21 1   
    22   20   23 1   
    23   20   28 1   
    24   21   22 2   
    25   21   38 1   
    26   23   24 1   
    27   23   25 1   
    28   23   29 1   
    29   24   26 1   
    30   24   30 1   
    31   24   31 1   
    32   25   32 1   
    33   25   33 1   
    34   25   34 1   
    35   26   35 1   
    36   26   36 1   
    37   26   37 1   
    38   38   39 1   
    39   38   46 1   
    40   39   40 1   
    41   39   42 1   
    42   39   47 1   
    43   40   41 2   
    44   40   50 1   
    45   42   43 1   
    46   42   48 1   
    47   42   49 1   
    48   43   44 1   
    49   43   45 1   
    50   50   51 1   
    51   50   54 1   
    52   51   52 1   
    53   51   55 1   
    54   51   56 1   
    55   52   53 2   
    56   52   57 1   
    57   57   58 1   
    58   57   65 1   
    59   58   59 1   
    60   58   61 1   
    61   58   66 1   
    62   59   60 2   
    63   59   69 1   
    64   61   62 1   
    65   61   67 1   
    66   61   68 1   
    67   62   63 1   
    68   62   64 1   
    69   69   70 1   
    70   69   73 1   
    71   70   71 1   
    72   70   74 1   
    73   70   75 1   
    74   71   72 2   
    75   71   76 1   
    76   76   77 1   
    77   76   85 1   
    78   77   78 1   
    79   77   80 1   
    80   77   86 1   
    81   78   79 2   
    82   78   93 1   
    83   80   81 1   
    84   80   87 1   
    85   80   88 1   
    86   81   82 1   
    87   81   89 1   
    88   81   90 1   
    89   82   83 1   
    90   82   84 2   
    91   83   91 1   
    92   83   92 1   
    93   93   94 1   
    94   93  100 1   
    95   94   95 1   
    96   94   97 1   
    97   94  101 1   
    98   95   96 2   
    99   95  109 1   
   100   97   98 1   
   101   97   99 1   
   102   97  102 1   
   103   98  103 1   
   104   98  104 1   
   105   98  105 1   
   106   99  106 1   
   107   99  107 1   
   108   99  108 1   
   109  109  110 1   
   110  109  117 1   
   111  110  111 1   
   112  110  113 1   
   113  110  118 1   
   114  111  112 2   
   115  111  123 1   
   116  113  114 1   
   117  113  119 1   
   118  113  120 1   
   119  114  115 1   
   120  114  116 2   
   121  115  121 1   
   122  115  122 1   
   123  123  124 1   
   124  123  135 1   
   125  124  125 1   
   126  124  127 1   
   127  124  136 1   
   128  125  126 2   
   129  125  144 1   
   130  127  128 1   
   131  127  137 1   
   132  127  138 1   
   133  128  129 ar  
   134  128  130 ar  
   135  129  131 ar  
   136  129  139 1   
   137  130  132 ar  
   138  130  140 1   
   139  131  133 ar  
   140  131  141 1   
   141  132  133 ar  
   142  132  142 1   
   143  133  134 1   
   144  134  143 1   
   145  144  145 1   
   146  144  153 1   
   147  145  146 1   
   148  145  148 1   
   149  145  154 1   
   150  146  147 2   
   151  146  159 1   
   152  148  149 1   
   153  148  155 1   
   154  148  156 1   
   155  149  150 1   
   156  149  157 1   
   157  149  158 1   
   158  150  151 1   
   159  150  152 1   
   160  159  160 1   
   161  159  168 1   
   162  160  161 1   
   163  160  163 1   
   164  160  169 1   
   165  161  162 2   
   166  161  174 1   
   167  163  164 1   
   168  163  170 1   
   169  163  171 1   
   170  164  165 1   
   171  164  172 1   
   172  164  173 1   
   173  165  166 1   
   174  165  167 1   
   175  174  175 1   
   176  174  179 1   
   177  175  176 1   
   178  175  177 1   
   179  175  178 1   
   180  181  182 1   
   181  181  183 1   
   182  184  185 1   
   183  184  186 1   
   184  187  188 1   
   185  187  189 1   
@<TRIPOS>SUBSTRUCTURE
     1 MOL         1 TEMP              0 ****  ****    0 ROOT
