@<TRIPOS>MOLECULE
MOL
  189   185     1     0     0
SMALL
resp


@<TRIPOS>ATOM
      1 C1          0.2240    4.0470    5.7900 c3        1 MOL     -0.333096
      2 C2         -0.4890    3.6150    4.4890 c         1 MOL      0.727951
      3 O1         -0.8270    2.4210    4.3960 o         1 MOL     -0.611290
      4 H1          1.1120    3.4330    5.9380 hc        1 MOL      0.086531
      5 H2          0.5150    5.0950    5.7130 hc        1 MOL      0.086531
      6 H3         -0.4520    3.9180    6.6350 hc        1 MOL      0.086531
      7 N1         -0.9110    4.5500    3.5950 n         1 MOL     -0.566822
      8 C3         -1.6950    4.2340    2.3850 c3        1 MOL      0.323546
      9 C4         -1.4270    5.2210    1.1810 c         1 MOL      0.391691
     10 O2         -1.5400    6.4820    1.2920 o         1 MOL     -0.580695
     11 C5         -3.1900    4.1000    2.7310 c3        1 MOL     -0.392572
     12 C6         -3.9830    3.3490    1.5420 c         1 MOL      0.773957
     13 O3         -3.3680    2.6950    0.6590 o         1 MOL     -0.702088
     14 O4         -5.2410    3.2660    1.5760 o         1 MOL     -0.702088
     15 H4         -0.6880    5.5270    3.7260 hn        1 MOL      0.295089
     16 H5         -1.2800    3.3130    1.9860 h1        1 MOL     -0.075937
     17 H6         -3.6950    5.0300    2.9820 hc        1 MOL      0.101636
     18 H7         -3.1520    3.4300    3.6010 hc        1 MOL      0.101636
     19 N2         -1.2470    4.6250    0.0130 n         1 MOL     -0.139098
     20 C7         -1.1340    5.3860   -1.2640 c3        1 MOL     -0.158457
     21 C8         -2.3570    5.0750   -2.2070 c         1 MOL      0.589062
     22 O5         -2.7810    5.9410   -3.0060 o         1 MOL     -0.589131
     23 C9          0.2900    5.1630   -2.0010 c3        1 MOL      0.226136
     24 C10         1.3700    4.8010   -0.9080 c3        1 MOL     -0.153236
     25 C11         0.9150    6.3560   -2.7290 c3        1 MOL     -0.531833
     26 C12         1.6750    5.8500    0.1740 c3        1 MOL     -0.000781
     27 H8         -1.0770    3.6320    0.0700 hn        1 MOL      0.277772
     28 H9         -1.1850    6.4650   -1.1180 h1        1 MOL      0.112670
     29 H10         0.2030    4.3490   -2.7090 hc        1 MOL      0.010622
     30 H11         2.2630    4.5970   -1.5070 hc        1 MOL      0.084739
     31 H12         1.1620    3.8290   -0.4540 hc        1 MOL      0.084739
     32 H13         1.9910    6.2250   -2.8190 hc        1 MOL      0.134348
     33 H14         0.4220    6.4140   -3.6930 hc        1 MOL      0.134348
     34 H15         0.7720    7.2670   -2.1520 hc        1 MOL      0.134348
     35 H16         1.5810    5.4410    1.1730 hc        1 MOL     -0.004436
     36 H17         2.6980    6.1890    0.0220 hc        1 MOL     -0.004436
     37 H18         0.9730    6.6830    0.1440 hc        1 MOL     -0.004436
     38 N3         -3.0930    3.9040   -2.0600 n         1 MOL     -0.383059
     39 C13        -3.9280    3.4260   -3.1040 c3        1 MOL      0.109019
     40 C14        -5.3640    3.0290   -2.6650 c         1 MOL      0.232400
     41 O6         -6.2990    3.0040   -3.4500 o         1 MOL     -0.510215
     42 C15        -3.2480    2.2260   -3.8380 c3        1 MOL     -0.379518
     43 C16        -2.5180    1.1820   -2.9250 c         1 MOL      0.747555
     44 O7         -3.0440    0.9420   -1.8150 o         1 MOL     -0.685804
     45 O8         -1.4600    0.6680   -3.3250 o         1 MOL     -0.685804
     46 H19        -3.0060    3.3950   -1.2000 hn        1 MOL      0.186157
     47 H20        -3.9460    4.1640   -3.9100 h1        1 MOL      0.100951
     48 H21        -2.5390    2.7580   -4.4760 hc        1 MOL      0.095855
     49 H22        -3.9950    1.7660   -4.4800 hc        1 MOL      0.095855
     50 N4         -5.5410    2.7470   -1.3590 n         1 MOL      0.085364
     51 C17        -6.8270    2.3100   -0.9200 c3        1 MOL     -0.155767
     52 C18        -7.2780    0.9200   -1.3900 c         1 MOL      0.326943
     53 O9         -8.4710    0.6550   -1.6050 o         1 MOL     -0.555920
     54 H23        -4.8020    2.9750   -0.7070 hn        1 MOL      0.059334
     55 H24        -7.4560    3.1720   -1.1600 h1        1 MOL      0.083711
     56 H25        -6.7230    2.2400    0.1590 h1        1 MOL      0.083711
     57 N5         -6.3140    0.0570   -1.7110 n         1 MOL      0.027585
     58 C19        -6.5630   -1.2520   -2.2830 c3        1 MOL     -0.036150
     59 C20        -7.0650   -2.2250   -1.2380 c         1 MOL      0.434968
     60 O10        -7.7570   -3.1910   -1.5430 o         1 MOL     -0.546649
     61 C21        -5.3530   -1.8340   -2.9360 c3        1 MOL     -0.404664
     62 C22        -4.0650   -2.0870   -2.1420 c         1 MOL      0.753945
     63 O11        -3.9480   -1.7250   -0.9470 o         1 MOL     -0.664087
     64 O12        -3.1430   -2.6600   -2.6990 o         1 MOL     -0.664087
     65 H26        -5.3650    0.3780   -1.5740 hn        1 MOL      0.133371
     66 H27        -7.3570   -1.1420   -3.0290 h1        1 MOL      0.110305
     67 H28        -5.1180   -1.0990   -3.7030 hc        1 MOL      0.117248
     68 H29        -5.6940   -2.7540   -3.3970 hc        1 MOL      0.117248
     69 N6         -6.8410   -1.9590    0.0590 n         1 MOL     -0.277886
     70 C23        -7.1330   -2.7920    1.3410 c3        1 MOL     -0.105060
     71 C24        -6.0700   -3.7940    1.6800 c         1 MOL      0.537727
     72 O13        -6.2180   -4.7560    2.3610 o         1 MOL     -0.599793
     73 H30        -6.2810   -1.1280    0.1890 hn        1 MOL      0.180979
     74 H31        -8.1210   -3.2400    1.4220 h1        1 MOL      0.087159
     75 H32        -7.1270   -2.0690    2.1520 h1        1 MOL      0.087159
     76 N7         -4.8950   -3.6370    1.0590 n         1 MOL     -0.241798
     77 C25        -3.5920   -4.3860    1.2640 c3        1 MOL     -0.045490
     78 C26        -2.4930   -3.4600    1.8910 c         1 MOL      0.522763
     79 O14        -2.5230   -2.2320    1.7270 o         1 MOL     -0.597199
     80 C27        -3.0690   -4.9870   -0.0130 c3        1 MOL      0.021240
     81 C28        -4.1320   -5.6410   -0.9350 c3        1 MOL     -0.197953
     82 C29        -3.5760   -6.3240   -2.1540 c         1 MOL      0.618035
     83 N8         -3.1030   -5.5190   -3.0520 n         1 MOL     -0.704432
     84 O15        -3.6510   -7.5300   -2.3000 o         1 MOL     -0.619400
     85 H33        -4.9140   -2.8580    0.4280 hn        1 MOL      0.209009
     86 H34        -3.7650   -5.2610    1.8860 h1        1 MOL      0.075593
     87 H35        -2.3830   -5.7830    0.2890 hc        1 MOL      0.030294
     88 H36        -2.5250   -4.2090   -0.5470 hc        1 MOL      0.030294
     89 H37        -4.8360   -4.9170   -1.3600 hc        1 MOL      0.077786
     90 H38        -4.7520   -6.3720   -0.4140 hc        1 MOL      0.077786
     91 H39        -3.1450   -4.5180   -2.9040 hn        1 MOL      0.327935
     92 H40        -2.9450   -5.9070   -3.9710 hn        1 MOL      0.327935
     93 N9         -1.3850   -4.0130    2.3830 n         1 MOL     -0.519511
     94 C30        -0.1660   -3.2930    2.7260 c3        1 MOL      0.265110
     95 C31         0.9390   -3.5560    1.6610 c         1 MOL      0.423918
     96 O16         1.3530   -4.7170    1.4730 o         1 MOL     -0.585753
     97 C32         0.3530   -3.6810    4.1500 c3        1 MOL      0.162191
     98 C33         1.6800   -3.0660    4.4520 c3        1 MOL     -0.196702
     99 C34        -0.6330   -3.2280    5.2380 c3        1 MOL     -0.196702
    100 H41        -1.3490   -5.0060    2.4730 hn        1 MOL      0.277057
    101 H42        -0.2180   -2.2170    2.8620 h1        1 MOL      0.047066
    102 H43         0.5490   -4.7520    4.1780 hc        1 MOL     -0.033258
    103 H44         1.9500   -3.2370    5.4970 hc        1 MOL      0.035431
    104 H45         2.4730   -3.4200    3.7970 hc        1 MOL      0.035431
    105 H46         1.6820   -1.9910    4.3140 hc        1 MOL      0.035431
    106 H47        -1.6090   -3.6810    5.1220 hc        1 MOL      0.035431
    107 H48        -0.2380   -3.5000    6.2190 hc        1 MOL      0.035431
    108 H49        -0.8170   -2.1500    5.2910 hc        1 MOL      0.035431
    109 N10         1.3300   -2.5290    0.8620 n         1 MOL     -0.123737
    110 C35         2.4660   -2.6990   -0.0760 c3        1 MOL     -0.036041
    111 C36         3.8630   -2.6020    0.6070 c         1 MOL      0.298035
    112 O17         3.9980   -1.9520    1.6380 o         1 MOL     -0.337365
    113 C37         2.4210   -1.5670   -1.0890 c3        1 MOL     -0.506960
    114 C38         3.4730   -1.7110   -2.2120 c         1 MOL      0.861987
    115 N11         3.4340   -2.7200   -3.0590 n         1 MOL     -0.886087
    116 O18         4.3680   -0.9450   -2.3390 o         1 MOL     -0.589750
    117 H50         0.9380   -1.6250    1.0780 hn        1 MOL      0.167750
    118 H51         2.3990   -3.6270   -0.6440 h1        1 MOL      0.078119
    119 H52         2.5610   -0.5800   -0.6350 hc        1 MOL      0.182535
    120 H53         1.4250   -1.6300   -1.5160 hc        1 MOL      0.182535
    121 H54         2.6160   -3.2990   -3.0760 hn        1 MOL      0.379019
    122 H55         4.0480   -2.7210   -3.8640 hn        1 MOL      0.379019
    123 N12         4.8890   -3.0220   -0.0520 n         1 MOL     -0.124617
    124 C39         6.2470   -2.8880    0.4730 c3        1 MOL     -0.056700
    125 C40         6.6390   -1.4900    0.7740 c         1 MOL      0.490174
    126 O19         7.2510   -1.1320    1.7530 o         1 MOL     -0.554713
    127 C41         7.2950   -3.5640   -0.5150 c3        1 MOL     -0.116428
    128 C42         7.5310   -3.0270   -1.8600 ca        1 MOL      0.038790
    129 C43         8.6290   -2.1770   -2.0790 ca        1 MOL     -0.187878
    130 C44         6.6390   -3.2900   -2.8760 ca        1 MOL     -0.187878
    131 C45         8.8160   -1.6290   -3.4060 ca        1 MOL     -0.351905
    132 C46         6.8570   -2.8250   -4.2190 ca        1 MOL     -0.351905
    133 C47         7.9310   -1.9640   -4.4720 ca        1 MOL      0.486858
    134 O20         8.2730   -1.5120   -5.7510 oh        1 MOL     -0.542189
    135 H56         4.7150   -3.5750   -0.8820 hn        1 MOL      0.147087
    136 H57         6.2350   -3.4190    1.4250 h1        1 MOL      0.073393
    137 H58         7.0770   -4.6300   -0.5130 hc        1 MOL      0.053693
    138 H59         8.2400   -3.4750    0.0200 hc        1 MOL      0.053693
    139 H60         9.3470   -1.9710   -1.2950 ha        1 MOL      0.157711
    140 H61         5.8600   -4.0090   -2.6710 ha        1 MOL      0.157711
    141 H62         9.6820   -0.9950   -3.5860 ha        1 MOL      0.175479
    142 H63         6.2030   -3.1840   -4.9980 ha        1 MOL      0.175479
    143 H64         9.1050   -1.0180   -5.7280 ho        1 MOL      0.383595
    144 N13         6.2030   -0.5390   -0.0830 n         1 MOL     -0.275675
    145 C48         6.4210    0.9220    0.0960 c3        1 MOL     -0.239451
    146 C49         5.5730    1.5490    1.2010 c         1 MOL      0.508003
    147 O21         6.0380    2.5100    1.8260 o         1 MOL     -0.556343
    148 C50         6.1680    1.5930   -1.2940 c3        1 MOL      0.177308
    149 C51         6.7220    3.0210   -1.3410 c3        1 MOL     -0.250228
    150 C52         6.6530    3.5110   -2.7820 c         1 MOL      0.722049
    151 O22         6.4660    4.7390   -2.9120 o         1 MOL     -0.744293
    152 O23         6.7270    2.7780   -3.7480 o         1 MOL     -0.744293
    153 H65         5.9920   -0.8340   -1.0250 hn        1 MOL      0.420105
    154 H66         7.4800    1.0390    0.3370 h1        1 MOL      0.110562
    155 H67         5.0870    1.7120   -1.3890 hc        1 MOL     -0.002747
    156 H68         6.5980    1.0050   -2.1020 hc        1 MOL     -0.002747
    157 H69         7.7430    2.9360   -0.9730 hc        1 MOL      0.027564
    158 H70         6.2770    3.7680   -0.6980 hc        1 MOL      0.027564
    159 N14         4.4620    1.0460    1.5110 n         1 MOL     -0.060152
    160 C53         3.7630    1.3930    2.8270 c3        1 MOL     -0.229923
    161 C54         4.4730    0.8790    4.0890 c         1 MOL      0.487646
    162 O24         4.6760    1.5610    5.0880 o         1 MOL     -0.573780
    163 C55         2.2780    1.0060    2.6030 c3        1 MOL      0.259099
    164 C56         1.5630    1.7360    1.4630 c3        1 MOL     -0.134496
    165 C57         0.3760    1.0680    0.9450 c         1 MOL      0.940834
    166 O25         0.0320   -0.0950    1.2830 o         1 MOL     -0.797882
    167 O26        -0.4220    1.7300    0.2680 o         1 MOL     -0.797882
    168 H71         4.2560    0.1530    1.1020 hn        1 MOL     -0.038864
    169 H72         3.7510    2.4770    2.9490 h1        1 MOL      0.120624
    170 H73         1.6900    0.9960    3.5160 hc        1 MOL     -0.046419
    171 H74         2.2760   -0.0350    2.2900 hc        1 MOL     -0.046419
    172 H75         2.2450    1.8480    0.6110 hc        1 MOL     -0.018016
    173 H76         1.3640    2.7280    1.8580 hc        1 MOL     -0.018016
    174 N15         4.9760   -0.3250    4.0600 n         1 MOL     -0.032367
    175 C58         5.6000   -0.9690    5.2260 c3        1 MOL     -0.268503
    176 H77         6.4440   -1.5760    4.8970 h1        1 MOL      0.093936
    177 H78         5.9530   -0.2040    5.9190 h1        1 MOL      0.093936
    178 H79         4.8700   -1.6030    5.7270 h1        1 MOL      0.093936
    179 H80         4.8260   -0.8450    3.2080 hn        1 MOL      0.106264
    180 Ca1        -2.5240    0.0810    0.5550 Ca        1 MOL      1.762777
    181 O27        -2.3760    0.6860    3.2450 oh        1 MOL     -0.926176
    182 H81        -2.8610    0.1730    3.8950 ho        1 MOL      0.435729
    183 H82        -1.8000    1.2480    3.7730 ho        1 MOL      0.435729
    184 O28        -5.1460    0.2070    1.6010 oh        1 MOL     -0.926176
    185 H83        -5.7000    0.1740    2.3740 ho        1 MOL      0.435729
    186 H84        -5.1520    1.1310    1.3440 ho        1 MOL      0.435729
    187 O29        -1.0820   -1.3820   -1.5870 oh        1 MOL     -0.926176
    188 H85        -1.1020   -0.7860   -2.3380 ho        1 MOL      0.435729
    189 H86        -1.8680   -1.9200   -1.6900 ho        1 MOL      0.435729
@<TRIPOS>BOND
     1    1    2 1   
     2    1    4 1   
     3    1    5 1   
     4    1    6 1   
     5    2    3 2   
     6    2    7 1   
     7    7    8 1   
     8    7   15 1   
     9    8    9 1   
    10    8   11 1   
    11    8   16 1   
    12    9   10 2   
    13    9   19 1   
    14   11   12 1   
    15   11   17 1   
    16   11   18 1   
    17   12   13 1   
    18   12   14 1   
    19   19   20 1   
    20   19   27 1   
    21   20   21 1   
    22   20   23 1   
    23   20   28 1   
    24   21   22 2   
    25   21   38 1   
    26   23   24 1   
    27   23   25 1   
    28   23   29 1   
    29   24   26 1   
    30   24   30 1   
    31   24   31 1   
    32   25   32 1   
    33   25   33 1   
    34   25   34 1   
    35   26   35 1   
    36   26   36 1   
    37   26   37 1   
    38   38   39 1   
    39   38   46 1   
    40   39   40 1   
    41   39   42 1   
    42   39   47 1   
    43   40   41 2   
    44   40   50 1   
    45   42   43 1   
    46   42   48 1   
    47   42   49 1   
    48   43   44 1   
    49   43   45 1   
    50   50   51 1   
    51   50   54 1   
    52   51   52 1   
    53   51   55 1   
    54   51   56 1   
    55   52   53 2   
    56   52   57 1   
    57   57   58 1   
    58   57   65 1   
    59   58   59 1   
    60   58   61 1   
    61   58   66 1   
    62   59   60 2   
    63   59   69 1   
    64   61   62 1   
    65   61   67 1   
    66   61   68 1   
    67   62   63 1   
    68   62   64 1   
    69   69   70 1   
    70   69   73 1   
    71   70   71 1   
    72   70   74 1   
    73   70   75 1   
    74   71   72 2   
    75   71   76 1   
    76   76   77 1   
    77   76   85 1   
    78   77   78 1   
    79   77   80 1   
    80   77   86 1   
    81   78   79 2   
    82   78   93 1   
    83   80   81 1   
    84   80   87 1   
    85   80   88 1   
    86   81   82 1   
    87   81   89 1   
    88   81   90 1   
    89   82   83 1   
    90   82   84 2   
    91   83   91 1   
    92   83   92 1   
    93   93   94 1   
    94   93  100 1   
    95   94   95 1   
    96   94   97 1   
    97   94  101 1   
    98   95   96 2   
    99   95  109 1   
   100   97   98 1   
   101   97   99 1   
   102   97  102 1   
   103   98  103 1   
   104   98  104 1   
   105   98  105 1   
   106   99  106 1   
   107   99  107 1   
   108   99  108 1   
   109  109  110 1   
   110  109  117 1   
   111  110  111 1   
   112  110  113 1   
   113  110  118 1   
   114  111  112 2   
   115  111  123 1   
   116  113  114 1   
   117  113  119 1   
   118  113  120 1   
   119  114  115 1   
   120  114  116 2   
   121  115  121 1   
   122  115  122 1   
   123  123  124 1   
   124  123  135 1   
   125  124  125 1   
   126  124  127 1   
   127  124  136 1   
   128  125  126 2   
   129  125  144 1   
   130  127  128 1   
   131  127  137 1   
   132  127  138 1   
   133  128  129 ar  
   134  128  130 ar  
   135  129  131 ar  
   136  129  139 1   
   137  130  132 ar  
   138  130  140 1   
   139  131  133 ar  
   140  131  141 1   
   141  132  133 ar  
   142  132  142 1   
   143  133  134 1   
   144  134  143 1   
   145  144  145 1   
   146  144  153 1   
   147  145  146 1   
   148  145  148 1   
   149  145  154 1   
   150  146  147 2   
   151  146  159 1   
   152  148  149 1   
   153  148  155 1   
   154  148  156 1   
   155  149  150 1   
   156  149  157 1   
   157  149  158 1   
   158  150  151 1   
   159  150  152 1   
   160  159  160 1   
   161  159  168 1   
   162  160  161 1   
   163  160  163 1   
   164  160  169 1   
   165  161  162 2   
   166  161  174 1   
   167  163  164 1   
   168  163  170 1   
   169  163  171 1   
   170  164  165 1   
   171  164  172 1   
   172  164  173 1   
   173  165  166 1   
   174  165  167 1   
   175  174  175 1   
   176  174  179 1   
   177  175  176 1   
   178  175  177 1   
   179  175  178 1   
   180  181  182 1   
   181  181  183 1   
   182  184  185 1   
   183  184  186 1   
   184  187  188 1   
   185  187  189 1   
@<TRIPOS>SUBSTRUCTURE
     1 MOL         1 TEMP              0 ****  ****    0 ROOT
