@<TRIPOS>MOLECULE
MOL
  175   173     1     0     0
SMALL
resp


@<TRIPOS>ATOM
      1 C1         -0.8060    3.2970    5.8800 c3        1 MOL     -0.312320
      2 C2         -1.1600    2.8970    4.4720 c         1 MOL      0.761048
      3 O1         -0.3640    3.1940    3.5910 o         1 MOL     -0.593882
      4 H1         -0.5090    4.3460    5.8950 hc        1 MOL      0.071485
      5 H2         -1.6710    3.1550    6.5270 hc        1 MOL      0.071485
      6 H3          0.0200    2.6810    6.2370 hc        1 MOL      0.071485
      7 N1         -2.4010    2.3990    4.1410 n         1 MOL     -0.681956
      8 C3         -2.8090    2.0880    2.7250 c3        1 MOL      0.253598
      9 C4         -3.2520    3.3340    1.9700 c         1 MOL      0.523689
     10 O2         -4.1630    4.0440    2.3140 o         1 MOL     -0.595565
     11 C5         -3.9970    1.0930    2.8180 c3        1 MOL     -0.217988
     12 C6         -4.5240    0.6670    1.4740 c         1 MOL      0.540465
     13 O3         -5.6420    0.1620    1.5270 o         1 MOL     -0.551159
     14 O4         -3.9630    1.0640    0.3820 o         1 MOL     -0.551159
     15 H4         -3.0560    2.2450    4.8960 hn        1 MOL      0.321777
     16 H5         -1.9590    1.5850    2.2550 h1        1 MOL     -0.020384
     17 H6         -4.8770    1.3870    3.3800 hc        1 MOL      0.050503
     18 H7         -3.6560    0.1230    3.2110 hc        1 MOL      0.050503
     19 N2         -2.4800    3.6940    0.9470 n         1 MOL     -0.240230
     20 C7         -2.3910    4.8920    0.1090 c3        1 MOL      0.053904
     21 C8         -3.2720    4.8020   -1.1450 c         1 MOL      0.646396
     22 O5         -3.3400    5.7720   -1.8860 o         1 MOL     -0.573531
     23 C9         -0.8880    5.1940   -0.2030 c3        1 MOL     -0.302303
     24 H8         -1.7620    3.0240    0.7280 hn        1 MOL      0.241053
     25 H9         -2.8870    5.6550    0.7230 h1        1 MOL      0.053301
     26 H10        -0.4540    4.4920   -0.9110 hc        1 MOL      0.096349
     27 H11        -0.8310    6.2260   -0.5310 hc        1 MOL      0.096349
     28 H12        -0.3470    5.0480    0.7330 hc        1 MOL      0.096349
     29 N3         -4.1240    3.7040   -1.2900 n         1 MOL     -0.528154
     30 C10        -5.0910    3.6000   -2.3850 c3        1 MOL      0.137530
     31 C11        -6.4480    2.8560   -2.0060 c         1 MOL      0.440555
     32 O6         -7.4300    2.8550   -2.7530 o         1 MOL     -0.542670
     33 C12        -4.4580    3.0150   -3.6360 c3        1 MOL     -0.275224
     34 C13        -3.6440    1.7130   -3.2970 c         1 MOL      0.744723
     35 O7         -2.4540    1.8460   -3.1350 o         1 MOL     -0.701836
     36 O8         -4.2230    0.6420   -2.9840 o         1 MOL     -0.701836
     37 H13        -3.9480    2.9370   -0.6550 hn        1 MOL      0.101967
     38 H14        -5.4710    4.5710   -2.7090 h1        1 MOL      0.083372
     39 H15        -3.7470    3.7550   -4.0020 hc        1 MOL      0.062085
     40 H16        -5.2650    2.8820   -4.3630 hc        1 MOL      0.062085
     41 N4         -6.5370    2.1940   -0.8560 n         1 MOL     -0.321995
     42 C14        -7.8630    1.6790   -0.4900 c3        1 MOL     -0.046514
     43 C15        -8.1900    0.2280   -0.8430 c         1 MOL      0.535436
     44 O9         -9.3540   -0.1580   -0.8420 o         1 MOL     -0.621208
     45 H17        -5.6940    2.0720   -0.3110 hn        1 MOL      0.302775
     46 H18        -8.6320    2.3180   -0.9170 h1        1 MOL      0.068866
     47 H19        -8.0590    1.6670    0.5850 h1        1 MOL      0.068866
     48 N5         -7.1720   -0.5720   -1.1060 n         1 MOL     -0.070070
     49 C16        -7.2240   -1.9920   -1.3270 c3        1 MOL     -0.075292
     50 C17        -6.9750   -2.8460   -0.0760 c         1 MOL      0.490918
     51 O10        -6.7310   -4.0260   -0.2240 o         1 MOL     -0.536868
     52 C18        -6.3270   -2.3660   -2.5440 c3        1 MOL     -0.239791
     53 C19        -4.8980   -2.3910   -2.3140 c         1 MOL      0.625135
     54 N6         -4.0680   -3.0910   -3.0290 n         1 MOL     -0.715405
     55 O11        -4.3830   -1.7380   -1.3910 o         1 MOL     -0.481454
     56 H20        -6.2880   -0.1310   -0.9490 hn        1 MOL      0.039610
     57 H21        -8.2290   -2.2800   -1.6150 h1        1 MOL      0.109954
     58 H22        -6.5940   -1.5760   -3.2380 hc        1 MOL      0.088954
     59 H23        -6.5070   -3.3900   -2.8630 hc        1 MOL      0.088954
     60 H24        -4.5070   -3.6060   -3.7760 hn        1 MOL      0.332557
     61 H25        -3.1840   -3.3320   -2.6150 hn        1 MOL      0.332557
     62 N7         -6.9080   -2.2600    1.0850 n         1 MOL     -0.282494
     63 C20        -6.5220   -2.9000    2.3410 c3        1 MOL     -0.162145
     64 C21        -5.1660   -3.5710    2.4030 c         1 MOL      0.568051
     65 O12        -4.9310   -4.4150    3.2150 o         1 MOL     -0.571918
     66 H26        -6.9630   -1.2610    1.1710 hn        1 MOL      0.247272
     67 H27        -7.2470   -3.7040    2.4830 h1        1 MOL      0.109675
     68 H28        -6.6130   -2.2280    3.1850 h1        1 MOL      0.109675
     69 N8         -4.1500   -3.1720    1.5600 n         1 MOL     -0.112135
     70 C22        -2.7100   -3.5740    1.6660 c3        1 MOL      0.030253
     71 C23        -1.6930   -2.4600    1.4640 c         1 MOL      0.238548
     72 O13        -2.0340   -1.3140    1.1860 o         1 MOL     -0.257100
     73 C24        -2.4240   -4.7650    0.7110 c3        1 MOL      0.231225
     74 C25        -3.2830   -6.0160    1.0050 c3        1 MOL     -0.380552
     75 O14        -2.6960   -4.3960   -0.5680 oh        1 MOL     -0.588898
     76 H29        -4.4860   -2.7000    0.7280 hn        1 MOL     -0.151818
     77 H30        -2.6210   -3.9800    2.6660 h1        1 MOL      0.076773
     78 H31        -1.3870   -5.0920    0.8530 h1        1 MOL      0.056015
     79 H32        -3.5720   -4.7470   -0.6970 ho        1 MOL      0.416508
     80 H33        -4.3060   -5.9120    0.6650 hc        1 MOL      0.103668
     81 H34        -3.0120   -6.9310    0.4820 hc        1 MOL      0.103668
     82 H35        -3.3240   -6.2810    2.0670 hc        1 MOL      0.103668
     83 N9         -0.3980   -2.7850    1.6910 n         1 MOL     -0.203744
     84 C26         0.7280   -1.9140    1.4110 c3        1 MOL     -0.174600
     85 C27         1.6970   -2.6380    0.5050 c         1 MOL      0.485640
     86 O15         1.9950   -3.8200    0.6940 o         1 MOL     -0.583049
     87 C28         1.3560   -1.4520    2.6840 c3        1 MOL      0.187467
     88 C29         1.7090   -2.6280    3.5850 c3        1 MOL      0.031436
     89 C30         0.3740   -0.4730    3.4390 c3        1 MOL     -0.688940
     90 C31         2.5230   -2.3020    4.8100 c3        1 MOL     -0.086430
     91 H36        -0.1190   -3.7060    2.0010 hn        1 MOL      0.212837
     92 H37         0.3870   -1.0430    0.8410 h1        1 MOL      0.080203
     93 H38         2.3000   -0.9680    2.4530 hc        1 MOL      0.010345
     94 H39         2.4480   -3.2140    3.0300 hc        1 MOL      0.006806
     95 H40         0.8650   -3.2980    3.6990 hc        1 MOL      0.006806
     96 H41        -0.6170   -0.9090    3.5790 hc        1 MOL      0.182439
     97 H42         0.8160    0.0100    4.3020 hc        1 MOL      0.182439
     98 H43         0.3570    0.3430    2.7040 hc        1 MOL      0.182439
     99 H44         2.9500   -3.1970    5.2460 hc        1 MOL      0.008579
    100 H45         3.3100   -1.5950    4.5340 hc        1 MOL      0.008579
    101 H46         1.8810   -1.8660    5.5760 hc        1 MOL      0.008579
    102 N10         2.2790   -1.8730   -0.3990 n         1 MOL     -0.237384
    103 C32         3.4560   -2.1640   -1.2070 c3        1 MOL     -0.004517
    104 C33         4.7550   -1.5820   -0.5820 c         1 MOL      0.443396
    105 O16         4.7040   -0.7280    0.2670 o         1 MOL     -0.374036
    106 C34         3.1710   -1.5650   -2.6130 c3        1 MOL      0.013809
    107 C35         3.9700   -1.7730   -3.8820 c         1 MOL      0.652272
    108 O17         4.8030   -2.6760   -3.8870 o         1 MOL     -0.703445
    109 O18         3.6560   -1.0470   -4.8330 o         1 MOL     -0.703445
    110 H47         1.9090   -0.9510   -0.5830 hn        1 MOL      0.274648
    111 H48         3.4980   -3.2320   -1.4050 h1        1 MOL      0.060187
    112 H49         3.0620   -0.4870   -2.5120 hc        1 MOL     -0.023504
    113 H50         2.1740   -1.8880   -2.8960 hc        1 MOL     -0.023504
    114 N11         5.9390   -1.9300   -1.0660 n         1 MOL     -0.575890
    115 C36         7.1950   -1.5060   -0.5300 c3        1 MOL      0.394393
    116 C37         7.2800    0.0870   -0.4460 c         1 MOL      0.410426
    117 O19         7.6100    0.6370    0.6040 o         1 MOL     -0.533526
    118 C38         8.4240   -2.1720   -1.1860 c3        1 MOL     -0.064555
    119 C39         9.8240   -1.6610   -0.6350 ca        1 MOL     -0.089480
    120 C40        10.1070   -1.6990    0.7860 ca        1 MOL     -0.067080
    121 C41        10.6740   -0.9720   -1.4510 ca        1 MOL     -0.067080
    122 C42        11.3370   -1.1710    1.3140 ca        1 MOL     -0.173270
    123 C43        11.8890   -0.5680   -0.9350 ca        1 MOL     -0.173270
    124 C44        12.1930   -0.6200    0.3880 ca        1 MOL     -0.008895
    125 H51         5.8970   -2.5050   -1.8930 hn        1 MOL      0.244564
    126 H52         7.2900   -1.7900    0.5120 h1        1 MOL      0.002880
    127 H53         8.3380   -2.0350   -2.2570 hc        1 MOL      0.038572
    128 H54         8.4000   -3.2510   -1.0220 hc        1 MOL      0.038572
    129 H55         9.3880   -2.1710    1.4450 ha        1 MOL      0.096271
    130 H56        10.4520   -0.8440   -2.4970 ha        1 MOL      0.096271
    131 H57        11.5440   -1.2980    2.3700 ha        1 MOL      0.114646
    132 H58        12.4730   -0.0180   -1.6540 ha        1 MOL      0.114646
    133 H59        13.1600   -0.1930    0.6130 ha        1 MOL      0.057920
    134 N12         6.8730    0.8810   -1.4440 n         1 MOL     -0.193021
    135 C45         6.6990    2.3860   -1.3410 c3        1 MOL      0.201321
    136 C46         5.7300    2.8630   -0.1840 c         1 MOL      0.250982
    137 O20         6.1370    3.7980    0.5070 o         1 MOL     -0.486805
    138 C47         6.2280    2.8370   -2.6840 c3        1 MOL     -0.006400
    139 C48         6.8870    1.7740   -3.5670 c3        1 MOL     -0.119259
    140 C49         6.5780    0.5140   -2.7930 c3        1 MOL     -0.144467
    141 H60         7.6980    2.7670   -1.1480 h1        1 MOL      0.029525
    142 H61         5.1470    2.7570   -2.6750 hc        1 MOL      0.015661
    143 H62         6.6020    3.8560   -2.8190 hc        1 MOL      0.015661
    144 H63         6.4180    1.8080   -4.5520 hc        1 MOL      0.051916
    145 H64         7.9480    2.0180   -3.6230 hc        1 MOL      0.051916
    146 H65         5.5160    0.2830   -2.8810 h1        1 MOL      0.108319
    147 H66         7.2390   -0.2690   -3.1710 h1        1 MOL      0.108319
    148 N13         4.5120    2.3290    0.0290 n         1 MOL     -0.244749
    149 C50         3.6950    2.5720    1.2100 c3        1 MOL     -0.109935
    150 C51         4.3770    2.1970    2.5240 c         1 MOL      0.495385
    151 O21         4.1570    2.9170    3.4750 o         1 MOL     -0.572885
    152 C52         2.3280    1.8540    1.0680 c3        1 MOL      0.037033
    153 C53         1.5320    2.2130   -0.2200 c3        1 MOL     -0.179102
    154 C54         0.3630    1.3050   -0.4440 c         1 MOL      0.869565
    155 O22        -0.7120    1.5070    0.1310 o         1 MOL     -0.802940
    156 O23         0.3460    0.3920   -1.2870 o         1 MOL     -0.802940
    157 H67         4.1260    1.6400   -0.6070 hn        1 MOL      0.300960
    158 H68         3.5490    3.6460    1.3400 h1        1 MOL      0.115878
    159 H69         1.6790    2.0720    1.9080 hc        1 MOL      0.046898
    160 H70         2.4600    0.7670    1.0910 hc        1 MOL      0.046898
    161 H71         2.2120    2.1030   -1.0650 hc        1 MOL      0.011701
    162 H72         1.1900    3.2370   -0.0840 hc        1 MOL      0.011701
    163 N14         5.0820    1.0790    2.6060 n         1 MOL      0.037914
    164 C55         5.7350    0.4420    3.7560 c3        1 MOL     -0.413395
    165 H73         5.9400   -0.6030    3.5230 h1        1 MOL      0.134644
    166 H74         6.6720    0.9560    3.9730 h1        1 MOL      0.134644
    167 H75         5.0800    0.4980    4.6250 h1        1 MOL      0.134644
    168 H76         5.1110    0.4820    1.7980 hn        1 MOL      0.020164
    169 Ca1        -2.2310   -0.0220   -1.3570 Ca        1 MOL      1.700292
    170 O24        -0.9080   -2.4450   -1.5450 oh        1 MOL     -0.861352
    171 H77        -1.0610   -3.3800   -1.3900 ho        1 MOL      0.418113
    172 H78        -0.3660   -2.4230   -2.3270 ho        1 MOL      0.418113
    173 O25        -1.6090   -0.9040   -3.9110 oh        1 MOL     -0.861352
    174 H79        -1.1200   -1.7000   -4.0940 ho        1 MOL      0.418113
    175 H80        -1.6260   -0.4260   -4.7460 ho        1 MOL      0.418113
@<TRIPOS>BOND
     1    1    2 1   
     2    1    4 1   
     3    1    5 1   
     4    1    6 1   
     5    2    3 2   
     6    2    7 1   
     7    7    8 1   
     8    7   15 1   
     9    8    9 1   
    10    8   11 1   
    11    8   16 1   
    12    9   10 2   
    13    9   19 1   
    14   11   12 1   
    15   11   17 1   
    16   11   18 1   
    17   12   13 1   
    18   12   14 1   
    19   19   20 1   
    20   19   24 1   
    21   20   21 1   
    22   20   23 1   
    23   20   25 1   
    24   21   22 2   
    25   21   29 1   
    26   23   26 1   
    27   23   27 1   
    28   23   28 1   
    29   29   30 1   
    30   29   37 1   
    31   30   31 1   
    32   30   33 1   
    33   30   38 1   
    34   31   32 2   
    35   31   41 1   
    36   33   34 1   
    37   33   39 1   
    38   33   40 1   
    39   34   35 1   
    40   34   36 1   
    41   41   42 1   
    42   41   45 1   
    43   42   43 1   
    44   42   46 1   
    45   42   47 1   
    46   43   44 2   
    47   43   48 1   
    48   48   49 1   
    49   48   56 1   
    50   49   50 1   
    51   49   52 1   
    52   49   57 1   
    53   50   51 2   
    54   50   62 1   
    55   52   53 1   
    56   52   58 1   
    57   52   59 1   
    58   53   54 1   
    59   53   55 2   
    60   54   60 1   
    61   54   61 1   
    62   62   63 1   
    63   62   66 1   
    64   63   64 1   
    65   63   67 1   
    66   63   68 1   
    67   64   65 2   
    68   64   69 1   
    69   69   70 1   
    70   69   76 1   
    71   70   71 1   
    72   70   73 1   
    73   70   77 1   
    74   71   72 2   
    75   71   83 1   
    76   73   74 1   
    77   73   75 1   
    78   73   78 1   
    79   74   80 1   
    80   74   81 1   
    81   74   82 1   
    82   75   79 1   
    83   83   84 1   
    84   83   91 1   
    85   84   85 1   
    86   84   87 1   
    87   84   92 1   
    88   85   86 2   
    89   85  102 1   
    90   87   88 1   
    91   87   89 1   
    92   87   93 1   
    93   88   90 1   
    94   88   94 1   
    95   88   95 1   
    96   89   96 1   
    97   89   97 1   
    98   89   98 1   
    99   90   99 1   
   100   90  100 1   
   101   90  101 1   
   102  102  103 1   
   103  102  110 1   
   104  103  104 1   
   105  103  106 1   
   106  103  111 1   
   107  104  105 2   
   108  104  114 1   
   109  106  107 1   
   110  106  112 1   
   111  106  113 1   
   112  107  108 1   
   113  107  109 1   
   114  114  115 1   
   115  114  125 1   
   116  115  116 1   
   117  115  118 1   
   118  115  126 1   
   119  116  117 2   
   120  116  134 1   
   121  118  119 1   
   122  118  127 1   
   123  118  128 1   
   124  119  120 ar  
   125  119  121 ar  
   126  120  122 ar  
   127  120  129 1   
   128  121  123 ar  
   129  121  130 1   
   130  122  124 ar  
   131  122  131 1   
   132  123  124 ar  
   133  123  132 1   
   134  124  133 1   
   135  134  135 1   
   136  134  140 1   
   137  135  136 1   
   138  135  138 1   
   139  135  141 1   
   140  136  137 2   
   141  136  148 1   
   142  138  139 1   
   143  138  142 1   
   144  138  143 1   
   145  139  140 1   
   146  139  144 1   
   147  139  145 1   
   148  140  146 1   
   149  140  147 1   
   150  148  149 1   
   151  148  157 1   
   152  149  150 1   
   153  149  152 1   
   154  149  158 1   
   155  150  151 2   
   156  150  163 1   
   157  152  153 1   
   158  152  159 1   
   159  152  160 1   
   160  153  154 1   
   161  153  161 1   
   162  153  162 1   
   163  154  155 1   
   164  154  156 1   
   165  163  164 1   
   166  163  168 1   
   167  164  165 1   
   168  164  166 1   
   169  164  167 1   
   170  170  171 1   
   171  170  172 1   
   172  173  174 1   
   173  173  175 1   
@<TRIPOS>SUBSTRUCTURE
     1 MOL         1 TEMP              0 ****  ****    0 ROOT
