@<TRIPOS>MOLECULE
MOL
  176   174     1     0     0
SMALL
resp


@<TRIPOS>ATOM
      1 C1          1.1400    3.4700    6.3260 c3        1 MOL     -0.334265
      2 C2          1.0270    3.2510    4.8320 c         1 MOL      0.736434
      3 O1          1.7960    2.4130    4.3050 o         1 MOL     -0.574296
      4 H1          1.8060    4.3110    6.5200 hc        1 MOL      0.091219
      5 H2          0.1540    3.6860    6.7370 hc        1 MOL      0.091219
      6 H3          1.5420    2.5730    6.7960 hc        1 MOL      0.091219
      7 N1          0.0990    3.8640    4.0300 n         1 MOL     -0.720142
      8 C3         -0.2450    3.3260    2.7640 c3        1 MOL      0.297596
      9 C4         -0.6380    4.4360    1.7550 c         1 MOL      0.400021
     10 O2         -1.3030    5.4380    2.0710 o         1 MOL     -0.543717
     11 C5         -1.3510    2.3260    3.0470 c3        1 MOL     -0.025872
     12 C6         -1.8270    1.6000    1.7920 c         1 MOL      0.663683
     13 O3         -2.3300    2.2390    0.9090 o         1 MOL     -0.736729
     14 O4         -1.5320    0.4100    1.6040 o         1 MOL     -0.736729
     15 H4         -0.4990    4.5470    4.4750 hn        1 MOL      0.333878
     16 H5          0.6450    2.8300    2.3590 h1        1 MOL     -0.000624
     17 H6         -2.1430    2.8020    3.6110 hc        1 MOL      0.005221
     18 H7         -0.9500    1.5680    3.7090 hc        1 MOL      0.005221
     19 N2         -0.3420    4.2060    0.4780 n         1 MOL     -0.165656
     20 C7         -0.3500    5.2130   -0.5940 c3        1 MOL     -0.217132
     21 C8         -1.6480    5.3030   -1.4170 c         1 MOL      0.672580
     22 O5         -1.8370    6.2130   -2.1610 o         1 MOL     -0.589351
     23 C9          0.9160    5.1570   -1.5270 c3        1 MOL     -0.073586
     24 C10         2.2430    5.2340   -0.8280 c3        1 MOL      0.030179
     25 C11         3.4410    5.1830   -1.8470 c3        1 MOL     -0.110455
     26 C12         3.5990    6.5720   -2.5630 c3        1 MOL      0.093430
     27 N3          4.5100    6.3980   -3.7600 n4        1 MOL     -0.402656
     28 H8          0.0400    3.2990    0.2480 hn        1 MOL      0.266003
     29 H9         -0.2470    6.1840   -0.1070 h1        1 MOL      0.126991
     30 H10         0.9360    5.9690   -2.2620 hc        1 MOL      0.027798
     31 H11         0.8640    4.1890   -2.0400 hc        1 MOL      0.027798
     32 H12         2.3250    4.3270   -0.2160 hc        1 MOL      0.029720
     33 H13         2.3470    6.0920   -0.1630 hc        1 MOL      0.029720
     34 H14         3.3000    4.3780   -2.5710 hc        1 MOL      0.075579
     35 H15         4.3800    5.1840   -1.2780 hc        1 MOL      0.075579
     36 H16         3.9390    7.3510   -1.8910 hx        1 MOL      0.082957
     37 H17         2.6580    6.9130   -2.9920 hx        1 MOL      0.082957
     38 H18         4.0590    5.8060   -4.4400 hn        1 MOL      0.327469
     39 H19         4.7480    7.2880   -4.1890 hn        1 MOL      0.327469
     40 H20         5.4570    6.0510   -3.7000 hn        1 MOL      0.327469
     41 N4         -2.6540    4.4520   -1.1880 n         1 MOL     -0.416604
     42 C13        -3.9480    4.4150   -1.8650 c3        1 MOL      0.075056
     43 C14        -5.1200    4.0690   -0.8920 c         1 MOL      0.395383
     44 O6         -6.2600    4.2510   -1.2430 o         1 MOL     -0.529734
     45 C15        -3.9740    3.3850   -2.9940 c3        1 MOL     -0.250607
     46 C16        -3.3170    2.0730   -2.6300 c         1 MOL      0.821156
     47 O7         -2.1880    1.6830   -3.1140 o         1 MOL     -0.778557
     48 O8         -3.9140    1.3570   -1.8250 o         1 MOL     -0.778557
     49 H21        -2.3570    3.7620   -0.5140 hn        1 MOL      0.168681
     50 H22        -4.2400    5.3790   -2.2890 h1        1 MOL      0.120437
     51 H23        -3.3800    3.8650   -3.7680 hc        1 MOL      0.067566
     52 H24        -4.9830    3.2690   -3.3830 hc        1 MOL      0.067566
     53 N5         -4.7830    3.6260    0.2970 n         1 MOL     -0.197506
     54 C17        -5.6210    3.0270    1.3180 c3        1 MOL     -0.149695
     55 C18        -6.5010    1.8260    0.8860 c         1 MOL      0.569506
     56 O9         -7.4220    1.4940    1.6300 o         1 MOL     -0.618251
     57 H25        -3.7890    3.4760    0.3810 hn        1 MOL      0.193318
     58 H26        -6.1520    3.8380    1.8260 h1        1 MOL      0.100835
     59 H27        -4.8710    2.6050    1.9900 h1        1 MOL      0.100835
     60 N6         -6.2020    1.0720   -0.1260 n         1 MOL     -0.331360
     61 C19        -6.9320   -0.1450   -0.6580 c3        1 MOL      0.073401
     62 C20        -7.0260   -1.4140    0.2460 c         1 MOL      0.428159
     63 O10        -7.6550   -2.4290   -0.1200 o         1 MOL     -0.540028
     64 C21        -6.1940   -0.6060   -1.9280 c3        1 MOL     -0.508584
     65 C22        -4.9040   -1.3930   -1.5590 c         1 MOL      0.816316
     66 N7         -4.7970   -2.5780   -2.0970 n         1 MOL     -0.724436
     67 O11        -4.0680   -1.0710   -0.7500 o         1 MOL     -0.762438
     68 H28        -5.3530    1.3400   -0.5990 hn        1 MOL      0.305965
     69 H29        -7.9670    0.1490   -0.8510 h1        1 MOL      0.119560
     70 H30        -5.9440    0.2570   -2.5390 hc        1 MOL      0.163715
     71 H31        -6.8440   -1.3420   -2.4020 hc        1 MOL      0.163715
     72 H32        -5.4140   -2.8920   -2.8310 hn        1 MOL      0.334264
     73 H33        -3.9180   -3.0390   -1.9150 hn        1 MOL      0.334264
     74 N8         -6.4240   -1.3690    1.4040 n         1 MOL     -0.230292
     75 C23        -6.3960   -2.5290    2.3450 c3        1 MOL     -0.134946
     76 C24        -5.0860   -3.3070    2.4590 c         1 MOL      0.473114
     77 O12        -4.9400   -4.0270    3.4770 o         1 MOL     -0.571390
     78 H34        -5.7360   -0.6560    1.5450 hn        1 MOL      0.257685
     79 H35        -7.1690   -3.2660    2.1590 h1        1 MOL      0.119609
     80 H36        -6.6160   -2.1230    3.3270 h1        1 MOL      0.119609
     81 N9         -4.0930   -3.1410    1.6210 n         1 MOL     -0.256320
     82 C25        -2.8420   -3.8600    1.6800 c3        1 MOL      0.080367
     83 C26        -1.6020   -3.0190    1.2330 c         1 MOL      0.367613
     84 O13        -1.6270   -2.1420    0.3640 o         1 MOL     -0.424005
     85 C27        -2.8370   -5.2330    0.9150 c3        1 MOL     -0.077167
     86 C28        -3.0870   -5.1740   -0.5870 ca        1 MOL      0.018788
     87 C29        -2.0890   -4.9410   -1.5490 ca        1 MOL     -0.126784
     88 C30        -4.3500   -5.6420   -1.0260 ca        1 MOL     -0.126784
     89 C31        -2.3530   -4.9410   -2.9810 ca        1 MOL     -0.277881
     90 C32        -4.6600   -5.6840   -2.3870 ca        1 MOL     -0.277881
     91 C33        -3.6620   -5.3300   -3.3690 ca        1 MOL      0.338275
     92 O14        -3.9100   -5.3810   -4.7150 oh        1 MOL     -0.543626
     93 H37        -4.2590   -2.4940    0.8650 hn        1 MOL      0.218098
     94 H38        -2.6680   -4.2550    2.6850 h1        1 MOL      0.079303
     95 H39        -3.5330   -5.9340    1.3810 hc        1 MOL      0.059286
     96 H40        -1.8510   -5.6670    1.1070 hc        1 MOL      0.059286
     97 H41        -1.1290   -4.6560   -1.1590 ha        1 MOL      0.143758
     98 H42        -5.0670   -5.8080   -0.2390 ha        1 MOL      0.143758
     99 H43        -1.5910   -4.8120   -3.7350 ha        1 MOL      0.154910
    100 H44        -5.6730   -5.9290   -2.6670 ha        1 MOL      0.154910
    101 H45        -4.7280   -5.8270   -4.9780 ho        1 MOL      0.408968
    102 N10        -0.4570   -3.2480    1.9070 n         1 MOL     -0.444620
    103 C34         0.8030   -2.6160    1.5530 c3        1 MOL      0.005887
    104 C35         1.7600   -3.4680    0.7240 c         1 MOL      0.491566
    105 O15         1.8280   -4.6850    0.9680 o         1 MOL     -0.542421
    106 C36         1.5910   -2.1060    2.7510 c3        1 MOL      0.302336
    107 C37         1.9200   -3.1440    3.7970 c3        1 MOL      0.024090
    108 C38         0.7440   -1.0170    3.4260 c3        1 MOL     -0.154570
    109 C39         3.3690   -2.8370    4.3020 c3        1 MOL     -0.135658
    110 H46        -0.4190   -4.0200    2.5580 hn        1 MOL      0.282895
    111 H47         0.6020   -1.7300    0.9580 h1        1 MOL      0.129534
    112 H48         2.4550   -1.6270    2.2900 hc        1 MOL     -0.127535
    113 H49         1.7750   -4.1240    3.3530 hc        1 MOL     -0.017865
    114 H50         1.2170   -3.0320    4.6250 hc        1 MOL     -0.017865
    115 H51         0.5510   -0.3060    2.6170 hc        1 MOL      0.044648
    116 H52        -0.1120   -1.4880    3.9150 hc        1 MOL      0.044648
    117 H53         1.3050   -0.4970    4.1970 hc        1 MOL      0.044648
    118 H54         3.4390   -1.8220    4.6890 hc        1 MOL      0.025700
    119 H55         3.6100   -3.5260    5.1100 hc        1 MOL      0.025700
    120 H56         4.1280   -2.9290    3.5180 hc        1 MOL      0.025700
    121 N11         2.5400   -2.9110   -0.1900 n         1 MOL     -0.406334
    122 C40         3.7340   -3.4850   -0.7790 c3        1 MOL      0.248165
    123 C41         5.1140   -3.3060   -0.0550 c         1 MOL      0.404381
    124 O16         5.2490   -2.3570    0.7230 o         1 MOL     -0.327769
    125 C42         3.8720   -3.0650   -2.2810 c3        1 MOL     -0.232076
    126 O17         4.1830   -1.6600   -2.3850 oh        1 MOL     -0.348526
    127 H57         2.3610   -1.9500   -0.4220 hn        1 MOL      0.250766
    128 H58         3.5030   -4.5510   -0.7530 h1        1 MOL      0.014449
    129 H59         2.9000   -3.2700   -2.7270 h1        1 MOL      0.109513
    130 H60         4.5700   -3.7200   -2.7970 h1        1 MOL      0.109513
    131 H61         3.9700   -1.3680   -3.2750 ho        1 MOL      0.370323
    132 N12         6.2160   -3.9730   -0.4850 n         1 MOL     -0.515936
    133 C43         7.6240   -3.5430   -0.2070 c3        1 MOL      0.183757
    134 C44         8.0010   -2.0720   -0.6630 c         1 MOL      0.467020
    135 O18         8.5400   -1.3040    0.1450 o         1 MOL     -0.494612
    136 C45         8.6780   -4.5430   -0.8280 c3        1 MOL     -0.332297
    137 H62         6.0940   -4.7250   -1.1530 hn        1 MOL      0.303361
    138 H63         7.8040   -3.5560    0.8570 h1        1 MOL      0.087942
    139 H64         8.5130   -5.5520   -0.4530 hc        1 MOL      0.100227
    140 H65         8.5830   -4.6100   -1.9110 hc        1 MOL      0.100227
    141 H66         9.6810   -4.2530   -0.5070 hc        1 MOL      0.100227
    142 N13         7.5720   -1.6210   -1.8540 n         1 MOL     -0.490644
    143 C46         7.7980   -0.2030   -2.1560 c3        1 MOL      0.216617
    144 C47         7.0060    0.7370   -1.2470 c         1 MOL      0.338375
    145 O19         7.5050    1.8090   -0.8970 o         1 MOL     -0.516489
    146 C48         7.4720    0.1310   -3.6250 c3        1 MOL     -0.300151
    147 H67         7.0550   -2.1950   -2.5070 hn        1 MOL      0.298199
    148 H68         8.8650   -0.0640   -2.0150 h1        1 MOL      0.084406
    149 H69         8.0190   -0.5710   -4.2440 hc        1 MOL      0.078400
    150 H70         6.3990   -0.0460   -3.7070 hc        1 MOL      0.078400
    151 H71         7.9320    1.1120   -3.6940 hc        1 MOL      0.078400
    152 N14         5.7390    0.4630   -0.9300 n         1 MOL     -0.095940
    153 C49         4.9880    1.2760    0.0040 c3        1 MOL     -0.175236
    154 C50         5.5170    1.1340    1.4380 c         1 MOL      0.492986
    155 O20         5.3030    2.0380    2.2560 o         1 MOL     -0.570924
    156 C51         3.4860    0.9970    0.1430 c3        1 MOL     -0.113342
    157 C52         2.7120    1.1680   -1.1650 c3        1 MOL      0.172047
    158 C53         1.2820    0.8030   -0.9420 c         1 MOL      0.710228
    159 O21         0.9030   -0.3790   -1.0610 o         1 MOL     -0.778844
    160 O22         0.4260    1.6800   -0.6560 o         1 MOL     -0.778844
    161 H72         5.3380   -0.4360   -1.1440 hn        1 MOL      0.024565
    162 H73         5.1210    2.2940   -0.3760 h1        1 MOL      0.074897
    163 H74         3.0770    1.6100    0.9460 hc        1 MOL      0.094045
    164 H75         3.4230   -0.0200    0.5430 hc        1 MOL      0.094045
    165 H76         3.1020    0.6310   -2.0370 hc        1 MOL     -0.070165
    166 H77         2.6990    2.2050   -1.5240 hc        1 MOL     -0.070165
    167 N15         6.1890    0.0900    1.8370 n         1 MOL      0.010398
    168 C54         6.9280   -0.0410    3.0900 c3        1 MOL     -0.231208
    169 H78         7.7580    0.6660    3.0980 h1        1 MOL      0.097724
    170 H79         6.2640    0.1690    3.9280 h1        1 MOL      0.097724
    171 H80         7.3160   -1.0560    3.1780 h1        1 MOL      0.097724
    172 H81         6.1540   -0.7000    1.1990 hn        1 MOL      0.027344
    173 Ca1        -1.7160    0.2660   -0.8860 Ca        1 MOL      1.785086
    174 O23        -1.5730   -1.6840   -2.6520 oh        1 MOL     -0.839487
    175 H82        -1.9990   -1.4700   -3.4830 ho        1 MOL      0.404442
    176 H83        -1.2880   -2.5920   -2.7580 ho        1 MOL      0.404442
@<TRIPOS>BOND
     1    1    2 1   
     2    1    4 1   
     3    1    5 1   
     4    1    6 1   
     5    2    3 2   
     6    2    7 1   
     7    7    8 1   
     8    7   15 1   
     9    8    9 1   
    10    8   11 1   
    11    8   16 1   
    12    9   10 2   
    13    9   19 1   
    14   11   12 1   
    15   11   17 1   
    16   11   18 1   
    17   12   13 1   
    18   12   14 1   
    19   19   20 1   
    20   19   28 1   
    21   20   21 1   
    22   20   23 1   
    23   20   29 1   
    24   21   22 2   
    25   21   41 1   
    26   23   24 1   
    27   23   30 1   
    28   23   31 1   
    29   24   25 1   
    30   24   32 1   
    31   24   33 1   
    32   25   26 1   
    33   25   34 1   
    34   25   35 1   
    35   26   27 1   
    36   26   36 1   
    37   26   37 1   
    38   27   38 1   
    39   27   39 1   
    40   27   40 1   
    41   41   42 1   
    42   41   49 1   
    43   42   43 1   
    44   42   45 1   
    45   42   50 1   
    46   43   44 2   
    47   43   53 1   
    48   45   46 1   
    49   45   51 1   
    50   45   52 1   
    51   46   47 1   
    52   46   48 1   
    53   53   54 1   
    54   53   57 1   
    55   54   55 1   
    56   54   58 1   
    57   54   59 1   
    58   55   56 2   
    59   55   60 1   
    60   60   61 1   
    61   60   68 1   
    62   61   62 1   
    63   61   64 1   
    64   61   69 1   
    65   62   63 2   
    66   62   74 1   
    67   64   65 1   
    68   64   70 1   
    69   64   71 1   
    70   65   66 1   
    71   65   67 2   
    72   66   72 1   
    73   66   73 1   
    74   74   75 1   
    75   74   78 1   
    76   75   76 1   
    77   75   79 1   
    78   75   80 1   
    79   76   77 2   
    80   76   81 1   
    81   81   82 1   
    82   81   93 1   
    83   82   83 1   
    84   82   85 1   
    85   82   94 1   
    86   83   84 2   
    87   83  102 1   
    88   85   86 1   
    89   85   95 1   
    90   85   96 1   
    91   86   87 ar  
    92   86   88 ar  
    93   87   89 ar  
    94   87   97 1   
    95   88   90 ar  
    96   88   98 1   
    97   89   91 ar  
    98   89   99 1   
    99   90   91 ar  
   100   90  100 1   
   101   91   92 1   
   102   92  101 1   
   103  102  103 1   
   104  102  110 1   
   105  103  104 1   
   106  103  106 1   
   107  103  111 1   
   108  104  105 2   
   109  104  121 1   
   110  106  107 1   
   111  106  108 1   
   112  106  112 1   
   113  107  109 1   
   114  107  113 1   
   115  107  114 1   
   116  108  115 1   
   117  108  116 1   
   118  108  117 1   
   119  109  118 1   
   120  109  119 1   
   121  109  120 1   
   122  121  122 1   
   123  121  127 1   
   124  122  123 1   
   125  122  125 1   
   126  122  128 1   
   127  123  124 2   
   128  123  132 1   
   129  125  126 1   
   130  125  129 1   
   131  125  130 1   
   132  126  131 1   
   133  132  133 1   
   134  132  137 1   
   135  133  134 1   
   136  133  136 1   
   137  133  138 1   
   138  134  135 2   
   139  134  142 1   
   140  136  139 1   
   141  136  140 1   
   142  136  141 1   
   143  142  143 1   
   144  142  147 1   
   145  143  144 1   
   146  143  146 1   
   147  143  148 1   
   148  144  145 2   
   149  144  152 1   
   150  146  149 1   
   151  146  150 1   
   152  146  151 1   
   153  152  153 1   
   154  152  161 1   
   155  153  154 1   
   156  153  156 1   
   157  153  162 1   
   158  154  155 2   
   159  154  167 1   
   160  156  157 1   
   161  156  163 1   
   162  156  164 1   
   163  157  158 1   
   164  157  165 1   
   165  157  166 1   
   166  158  159 1   
   167  158  160 1   
   168  167  168 1   
   169  167  172 1   
   170  168  169 1   
   171  168  170 1   
   172  168  171 1   
   173  174  175 1   
   174  174  176 1   
@<TRIPOS>SUBSTRUCTURE
     1 MOL         1 TEMP              0 ****  ****    0 ROOT
