@<TRIPOS>MOLECULE
MOL
  175   173     1     0     0
SMALL
resp


@<TRIPOS>ATOM
      1 C1          0.2430    4.1690    5.6070 c3        1 MOL     -0.469133
      2 C2         -0.1140    4.1180    4.1560 c         1 MOL      0.741765
      3 O1          0.7530    4.2690    3.3420 o         1 MOL     -0.546691
      4 H1         -0.6670    4.2440    6.2020 hc        1 MOL      0.110555
      5 H2          0.7820    3.2620    5.8800 hc        1 MOL      0.110555
      6 H3          0.8730    5.0370    5.7960 hc        1 MOL      0.110555
      7 N1         -1.3860    3.9600    3.8760 n         1 MOL     -0.548767
      8 C3         -2.0070    3.6330    2.5770 c3        1 MOL      0.086830
      9 C4         -1.9970    4.7960    1.5100 c         1 MOL      0.490387
     10 O2         -2.1470    5.9790    1.8720 o         1 MOL     -0.556194
     11 C5         -3.3670    3.0060    2.8370 c3        1 MOL     -0.071804
     12 C6         -4.0970    2.5180    1.6160 c         1 MOL      0.716585
     13 O3         -5.3240    2.6820    1.6500 o         1 MOL     -0.649146
     14 O4         -3.4630    1.9450    0.7040 o         1 MOL     -0.649146
     15 H4         -1.9970    3.7520    4.6490 hn        1 MOL      0.299599
     16 H5         -1.4510    2.8460    2.0780 h1        1 MOL      0.016059
     17 H6         -4.0260    3.6520    3.4200 hc        1 MOL     -0.010246
     18 H7         -3.1790    2.2270    3.5800 hc        1 MOL     -0.010246
     19 N2         -1.9710    4.4620    0.2130 n         1 MOL     -0.363661
     20 C7         -2.1560    5.3410   -0.8980 c3        1 MOL      0.248473
     21 C8         -3.4620    5.1680   -1.7360 c         1 MOL      0.320242
     22 O5         -3.8130    5.9240   -2.6670 o         1 MOL     -0.553436
     23 C9         -0.8930    5.1870   -1.8290 c3        1 MOL     -0.203302
     24 H8         -1.9780    3.4760    0.0290 hn        1 MOL      0.276901
     25 H9         -2.1160    6.3390   -0.4750 h1        1 MOL      0.024719
     26 H10        -1.1210    4.4450   -2.5920 hc        1 MOL      0.053741
     27 H11        -0.6340    6.1200   -2.3320 hc        1 MOL      0.053741
     28 H12         0.0050    4.8590   -1.3010 hc        1 MOL      0.053741
     29 N3         -4.1680    4.0730   -1.5510 n         1 MOL     -0.271360
     30 C10        -4.9810    3.5260   -2.5850 c3        1 MOL      0.179756
     31 C11        -6.1720    2.6450   -2.1110 c         1 MOL      0.222098
     32 O6         -7.1500    2.4470   -2.8760 o         1 MOL     -0.539207
     33 C12        -4.2000    2.6810   -3.6350 c3        1 MOL     -0.152308
     34 C13        -3.4710    1.4600   -3.0520 c         1 MOL      0.787481
     35 O7         -3.7160    1.0680   -1.8960 o         1 MOL     -0.739707
     36 O8         -2.5900    0.8310   -3.6940 o         1 MOL     -0.739707
     37 H13        -3.9240    3.5070   -0.7500 hn        1 MOL      0.171829
     38 H14        -5.4040    4.3050   -3.2080 h1        1 MOL      0.072508
     39 H15        -3.3300    3.2550   -3.9390 hc        1 MOL      0.033383
     40 H16        -4.8040    2.4450   -4.5070 hc        1 MOL      0.033383
     41 N4         -6.1800    2.1870   -0.8530 n         1 MOL      0.009957
     42 C14        -7.2400    1.2780   -0.3070 c3        1 MOL     -0.379507
     43 C15        -7.1780   -0.1070   -0.9650 c         1 MOL      0.564541
     44 O9         -8.1640   -0.8290   -0.8870 o         1 MOL     -0.651496
     45 H17        -5.4180    2.3830   -0.2160 hn        1 MOL      0.062591
     46 H18        -8.1770    1.7020   -0.6590 h1        1 MOL      0.163509
     47 H19        -7.1690    1.1940    0.7850 h1        1 MOL      0.163509
     48 N5         -6.1150   -0.6260   -1.5310 n         1 MOL     -0.091840
     49 C16        -6.0500   -1.9460   -2.2700 c3        1 MOL      0.006518
     50 C17        -6.1880   -3.2250   -1.4450 c         1 MOL      0.434564
     51 O10        -6.3970   -4.3290   -1.9360 o         1 MOL     -0.544225
     52 C18        -4.9360   -2.0840   -3.2770 c3        1 MOL     -0.145217
     53 C19        -3.5880   -2.1810   -2.5850 c         1 MOL      0.592959
     54 N6         -2.6050   -2.7310   -3.3140 n         1 MOL     -0.516504
     55 O11        -3.3790   -2.0380   -1.3280 o         1 MOL     -0.664708
     56 H20        -5.3060   -0.0110   -1.6130 hn        1 MOL      0.109247
     57 H21        -6.9710   -1.9310   -2.8510 h1        1 MOL      0.075295
     58 H22        -4.9710   -1.2660   -3.9900 hc        1 MOL      0.059384
     59 H23        -5.0620   -3.0400   -3.7890 hc        1 MOL      0.059384
     60 H24        -2.8110   -3.0690   -4.2490 hn        1 MOL      0.289316
     61 H25        -1.6280   -2.6470   -3.0760 hn        1 MOL      0.289316
     62 N7         -6.1550   -3.0960   -0.1270 n         1 MOL     -0.134244
     63 C20        -6.3580   -4.1480    0.8540 c3        1 MOL     -0.161390
     64 C21        -5.0300   -4.7090    1.5080 c         1 MOL      0.538385
     65 O12        -4.9980   -5.6980    2.2440 o         1 MOL     -0.585656
     66 H26        -5.9510   -2.1570    0.1610 hn        1 MOL      0.172371
     67 H27        -6.9680   -4.9790    0.5090 h1        1 MOL      0.091482
     68 H28        -6.9580   -3.7020    1.6360 h1        1 MOL      0.091482
     69 N8         -3.8860   -4.0950    1.1420 n         1 MOL     -0.368484
     70 C22        -2.5370   -4.4750    1.4870 c3        1 MOL     -0.036568
     71 C23        -1.5110   -3.3060    1.6960 c         1 MOL      0.431752
     72 O13        -1.6240   -2.3440    0.9600 o         1 MOL     -0.486961
     73 C24        -1.9630   -5.3680    0.2890 c3        1 MOL      0.567168
     74 C25        -2.0640   -6.9440    0.5240 c3        1 MOL     -0.337743
     75 O14        -2.5650   -4.9740   -0.8980 oh        1 MOL     -0.610099
     76 H29        -3.9940   -3.3410    0.4860 hn        1 MOL      0.303087
     77 H30        -2.5650   -4.9730    2.4500 h1        1 MOL      0.044637
     78 H31        -0.9000   -5.1330    0.1610 h1        1 MOL     -0.053517
     79 H32        -2.3840   -4.0300   -0.9790 ho        1 MOL      0.309666
     80 H33        -3.0330   -7.2060    0.9610 hc        1 MOL      0.073787
     81 H34        -1.9100   -7.5460   -0.3700 hc        1 MOL      0.073787
     82 H35        -1.3010   -7.1640    1.2600 hc        1 MOL      0.073787
     83 N9         -0.4840   -3.5170    2.4790 n         1 MOL     -0.454448
     84 C26         0.8030   -2.7370    2.4720 c3        1 MOL      0.061320
     85 C27         1.5510   -3.0960    1.1580 c         1 MOL      0.502333
     86 O15         1.7110   -4.2800    0.8600 o         1 MOL     -0.578516
     87 C28         1.6890   -2.9180    3.7720 c3        1 MOL      0.014132
     88 C29         1.1510   -1.9860    4.8730 c3        1 MOL      0.229762
     89 C30         3.1500   -2.6170    3.5010 c3        1 MOL     -0.267389
     90 C31         1.5910   -2.0730    6.3180 c3        1 MOL     -0.211895
     91 H36        -0.3560   -4.3590    3.0240 hn        1 MOL      0.287148
     92 H37         0.6270   -1.6670    2.3580 h1        1 MOL     -0.004368
     93 H38         1.6230   -3.9850    3.9860 hc        1 MOL      0.009764
     94 H39         0.1000   -2.2510    4.9180 hc        1 MOL     -0.043672
     95 H40         1.2130   -0.9550    4.5120 hc        1 MOL     -0.043672
     96 H41         3.1830   -1.6230    3.0590 hc        1 MOL      0.057835
     97 H42         3.7210   -2.6880    4.4340 hc        1 MOL      0.057835
     98 H43         3.6240   -3.1610    2.6900 hc        1 MOL      0.057835
     99 H44         0.9950   -1.3520    6.8590 hc        1 MOL      0.044416
    100 H45         1.2210   -3.0540    6.6320 hc        1 MOL      0.044416
    101 H46         2.6560   -1.8310    6.3950 hc        1 MOL      0.044416
    102 N10         1.8410   -2.1080    0.2950 n         1 MOL     -0.200892
    103 C32         2.7750   -2.1400   -0.8690 c3        1 MOL      0.049280
    104 C33         4.1490   -1.5760   -0.5090 c         1 MOL      0.380031
    105 O16         4.3230   -1.0120    0.5790 o         1 MOL     -0.242864
    106 C34         2.0990   -1.3630   -2.0210 c3        1 MOL     -0.517567
    107 C35         0.5940   -1.6730   -2.1800 c         1 MOL      0.878514
    108 O17        -0.2340   -1.0310   -1.5210 o         1 MOL     -0.695981
    109 O18         0.1710   -2.3860   -3.1030 o         1 MOL     -0.695981
    110 H47         1.4410   -1.2220    0.5670 hn        1 MOL      0.205773
    111 H48         2.9700   -3.1560   -1.2200 h1        1 MOL      0.078985
    112 H49         2.6800   -1.5580   -2.9210 hc        1 MOL      0.137948
    113 H50         2.1980   -0.3300   -1.6900 hc        1 MOL      0.137948
    114 N11         5.1290   -1.8390   -1.3810 n         1 MOL     -0.609577
    115 C36         6.5050   -1.4080   -1.2130 c3        1 MOL      0.380521
    116 C37         6.7470    0.1060   -1.0140 c         1 MOL      0.310464
    117 O19         7.2860    0.5450    0.0290 o         1 MOL     -0.497208
    118 C38         7.3530   -2.0070   -2.3150 c3        1 MOL     -0.248749
    119 C39         8.8540   -1.7330   -2.2890 ca        1 MOL      0.128691
    120 C40         9.5810   -1.8740   -1.1430 ca        1 MOL     -0.132157
    121 C41         9.4970   -1.3740   -3.4550 ca        1 MOL     -0.132157
    122 C42        10.9730   -1.6050   -1.1100 ca        1 MOL     -0.160070
    123 C43        10.8490   -1.1570   -3.4880 ca        1 MOL     -0.160070
    124 C44        11.6060   -1.1640   -2.2790 ca        1 MOL     -0.071958
    125 H51         4.9140   -2.4080   -2.1900 hn        1 MOL      0.358527
    126 H52         6.9510   -1.8120   -0.2990 h1        1 MOL      0.032596
    127 H53         6.9320   -1.5570   -3.2120 hc        1 MOL      0.058699
    128 H54         7.2240   -3.0930   -2.2590 hc        1 MOL      0.058699
    129 H55         9.0620   -2.0470   -0.2150 ha        1 MOL      0.109310
    130 H56         8.9250   -1.1990   -4.3570 ha        1 MOL      0.109310
    131 H57        11.4900   -1.5950   -0.1580 ha        1 MOL      0.122734
    132 H58        11.3460   -0.8260   -4.3800 ha        1 MOL      0.122734
    133 H59        12.6730   -1.0130   -2.2130 ha        1 MOL      0.095655
    134 N12         6.2060    0.9970   -1.8900 n         1 MOL     -0.136879
    135 C45         6.1880    2.4050   -1.5480 c3        1 MOL      0.042224
    136 C46         5.4920    2.9070   -0.2880 c         1 MOL      0.381075
    137 O20         5.6980    4.0570    0.1300 o         1 MOL     -0.511095
    138 C47         5.7650    3.1110   -2.7910 c3        1 MOL     -0.193003
    139 C48         4.8610    2.0880   -3.5060 c3        1 MOL     -0.064713
    140 C49         5.5340    0.7640   -3.1200 c3        1 MOL      0.130810
    141 H60         7.2340    2.6910   -1.4160 h1        1 MOL      0.063635
    142 H61         5.3070    4.0230   -2.4250 hc        1 MOL      0.077215
    143 H62         6.6280    3.4260   -3.3660 hc        1 MOL      0.077215
    144 H63         3.8490    2.0900   -3.1150 hc        1 MOL      0.048343
    145 H64         4.8210    2.0490   -4.5940 hc        1 MOL      0.048343
    146 H65         4.8010   -0.0330   -3.0330 h1        1 MOL     -0.018987
    147 H66         6.3280    0.5060   -3.8240 h1        1 MOL     -0.018987
    148 N13         4.6690    2.0090    0.2420 n         1 MOL     -0.125401
    149 C50         3.9850    2.1580    1.5550 c3        1 MOL     -0.164636
    150 C51         4.8570    1.6320    2.6750 c         1 MOL      0.460700
    151 O21         4.9230    2.2390    3.7690 o         1 MOL     -0.577815
    152 C52         2.6080    1.5290    1.5390 c3        1 MOL      0.068111
    153 C53         1.7420    2.2160    0.4460 c3        1 MOL     -0.097687
    154 C54         0.3550    1.4710    0.3160 c         1 MOL      0.537415
    155 O22         0.1700    0.4860    1.1010 o         1 MOL     -0.663185
    156 O23        -0.5000    1.8910   -0.4740 o         1 MOL     -0.663185
    157 H67         4.6080    1.1010   -0.1840 hn        1 MOL      0.193912
    158 H68         3.8160    3.2300    1.6540 h1        1 MOL      0.128733
    159 H69         2.1940    1.7450    2.5190 hc        1 MOL      0.033960
    160 H70         2.6520    0.4720    1.2850 hc        1 MOL      0.033960
    161 H71         2.2400    2.0530   -0.5070 hc        1 MOL      0.042974
    162 H72         1.6540    3.2600    0.7460 hc        1 MOL      0.042974
    163 N14         5.4860    0.4830    2.4740 n         1 MOL     -0.051331
    164 C55         6.3350   -0.2930    3.4170 c3        1 MOL     -0.201674
    165 H73         7.2810   -0.5380    2.9350 h1        1 MOL      0.084376
    166 H74         6.5260    0.3030    4.3090 h1        1 MOL      0.084376
    167 H75         5.8220   -1.2130    3.6960 h1        1 MOL      0.084376
    168 H76         5.2010    0.1070    1.5740 hn        1 MOL     -0.032172
    169 Ca1        -2.1600   -0.0540   -0.1360 Ca        1 MOL      1.711192
    170 O24        -1.9290    0.1570    2.7610 oh        1 MOL     -0.814011
    171 H77        -0.9870    0.2420    2.6120 ho        1 MOL      0.387566
    172 H78        -2.0800    0.6240    3.5770 ho        1 MOL      0.387566
    173 O25        -4.1900   -0.8860    1.6170 oh        1 MOL     -0.814011
    174 H79        -5.0410   -1.0940    1.9790 ho        1 MOL      0.387566
    175 H80        -3.6460   -0.6790    2.3800 ho        1 MOL      0.387566
@<TRIPOS>BOND
     1    1    2 1   
     2    1    4 1   
     3    1    5 1   
     4    1    6 1   
     5    2    3 2   
     6    2    7 1   
     7    7    8 1   
     8    7   15 1   
     9    8    9 1   
    10    8   11 1   
    11    8   16 1   
    12    9   10 2   
    13    9   19 1   
    14   11   12 1   
    15   11   17 1   
    16   11   18 1   
    17   12   13 1   
    18   12   14 1   
    19   19   20 1   
    20   19   24 1   
    21   20   21 1   
    22   20   23 1   
    23   20   25 1   
    24   21   22 2   
    25   21   29 1   
    26   23   26 1   
    27   23   27 1   
    28   23   28 1   
    29   29   30 1   
    30   29   37 1   
    31   30   31 1   
    32   30   33 1   
    33   30   38 1   
    34   31   32 2   
    35   31   41 1   
    36   33   34 1   
    37   33   39 1   
    38   33   40 1   
    39   34   35 1   
    40   34   36 1   
    41   41   42 1   
    42   41   45 1   
    43   42   43 1   
    44   42   46 1   
    45   42   47 1   
    46   43   44 2   
    47   43   48 1   
    48   48   49 1   
    49   48   56 1   
    50   49   50 1   
    51   49   52 1   
    52   49   57 1   
    53   50   51 2   
    54   50   62 1   
    55   52   53 1   
    56   52   58 1   
    57   52   59 1   
    58   53   54 1   
    59   53   55 2   
    60   54   60 1   
    61   54   61 1   
    62   62   63 1   
    63   62   66 1   
    64   63   64 1   
    65   63   67 1   
    66   63   68 1   
    67   64   65 2   
    68   64   69 1   
    69   69   70 1   
    70   69   76 1   
    71   70   71 1   
    72   70   73 1   
    73   70   77 1   
    74   71   72 2   
    75   71   83 1   
    76   73   74 1   
    77   73   75 1   
    78   73   78 1   
    79   74   80 1   
    80   74   81 1   
    81   74   82 1   
    82   75   79 1   
    83   83   84 1   
    84   83   91 1   
    85   84   85 1   
    86   84   87 1   
    87   84   92 1   
    88   85   86 2   
    89   85  102 1   
    90   87   88 1   
    91   87   89 1   
    92   87   93 1   
    93   88   90 1   
    94   88   94 1   
    95   88   95 1   
    96   89   96 1   
    97   89   97 1   
    98   89   98 1   
    99   90   99 1   
   100   90  100 1   
   101   90  101 1   
   102  102  103 1   
   103  102  110 1   
   104  103  104 1   
   105  103  106 1   
   106  103  111 1   
   107  104  105 2   
   108  104  114 1   
   109  106  107 1   
   110  106  112 1   
   111  106  113 1   
   112  107  108 1   
   113  107  109 1   
   114  114  115 1   
   115  114  125 1   
   116  115  116 1   
   117  115  118 1   
   118  115  126 1   
   119  116  117 2   
   120  116  134 1   
   121  118  119 1   
   122  118  127 1   
   123  118  128 1   
   124  119  120 ar  
   125  119  121 ar  
   126  120  122 ar  
   127  120  129 1   
   128  121  123 ar  
   129  121  130 1   
   130  122  124 ar  
   131  122  131 1   
   132  123  124 ar  
   133  123  132 1   
   134  124  133 1   
   135  134  135 1   
   136  134  140 1   
   137  135  136 1   
   138  135  138 1   
   139  135  141 1   
   140  136  137 2   
   141  136  148 1   
   142  138  139 1   
   143  138  142 1   
   144  138  143 1   
   145  139  140 1   
   146  139  144 1   
   147  139  145 1   
   148  140  146 1   
   149  140  147 1   
   150  148  149 1   
   151  148  157 1   
   152  149  150 1   
   153  149  152 1   
   154  149  158 1   
   155  150  151 2   
   156  150  163 1   
   157  152  153 1   
   158  152  159 1   
   159  152  160 1   
   160  153  154 1   
   161  153  161 1   
   162  153  162 1   
   163  154  155 1   
   164  154  156 1   
   165  163  164 1   
   166  163  168 1   
   167  164  165 1   
   168  164  166 1   
   169  164  167 1   
   170  170  171 1   
   171  170  172 1   
   172  173  174 1   
   173  173  175 1   
@<TRIPOS>SUBSTRUCTURE
     1 MOL         1 TEMP              0 ****  ****    0 ROOT
