@<TRIPOS>MOLECULE
MOL
  179   176     1     0     0
SMALL
resp


@<TRIPOS>ATOM
      1 C1         -1.4100   -2.4510    6.5870 c3        1 MOL     -0.269362
      2 C2         -1.0760   -2.1970    5.0950 c         1 MOL      0.772879
      3 O1         -1.8680   -1.5180    4.4470 o         1 MOL     -0.621261
      4 H1         -2.1750   -1.7460    6.9120 hc        1 MOL      0.067372
      5 H2         -1.7800   -3.4690    6.7080 hc        1 MOL      0.067372
      6 H3         -0.5120   -2.3150    7.1890 hc        1 MOL      0.067372
      7 N1          0.0120   -2.6820    4.5110 n         1 MOL     -0.669811
      8 C3          0.4970   -2.5730    3.1230 c3        1 MOL      0.097318
      9 C4          0.3100   -3.8300    2.2990 c         1 MOL      0.605950
     10 O2          0.6120   -4.9220    2.6870 o         1 MOL     -0.541724
     11 C5          1.9080   -2.0540    3.2120 c3        1 MOL     -0.265587
     12 C6          2.5310   -1.5280    1.8580 c         1 MOL      0.645538
     13 O3          1.8570   -1.5160    0.8360 o         1 MOL     -0.678433
     14 O4          3.6490   -1.0510    1.8780 o         1 MOL     -0.678433
     15 H4          0.5910   -3.2340    5.1180 hn        1 MOL      0.318927
     16 H5         -0.0610   -1.7480    2.6820 h1        1 MOL      0.094866
     17 H6          2.5220   -2.9180    3.4590 hc        1 MOL      0.079658
     18 H7          2.0370   -1.3170    4.0030 hc        1 MOL      0.079658
     19 N2         -0.2200   -3.6540    1.0650 n         1 MOL     -0.253632
     20 C7         -0.6260   -4.7540    0.1730 c3        1 MOL     -0.256665
     21 C8          0.4940   -5.5430   -0.5850 c         1 MOL      0.557175
     22 O5          0.4290   -6.7520   -0.6700 o         1 MOL     -0.580941
     23 C9         -1.8350   -4.4070   -0.7940 c3        1 MOL      0.240337
     24 C10        -2.7410   -5.5850   -1.3450 c3        1 MOL     -0.218159
     25 C11        -4.1720   -5.2540   -1.8230 c3        1 MOL     -0.043910
     26 C12        -5.0230   -6.4840   -2.0000 c3        1 MOL     -0.023530
     27 N3         -6.4310   -6.0860   -2.4110 n4        1 MOL     -0.275922
     28 H8         -0.6660   -2.7640    0.8930 hn        1 MOL      0.150391
     29 H9         -1.0200   -5.5590    0.7850 h1        1 MOL      0.124052
     30 H10        -1.4340   -3.8540   -1.6510 hc        1 MOL     -0.009259
     31 H11        -2.4670   -3.7120   -0.2480 hc        1 MOL     -0.009259
     32 H12        -2.7170   -6.1920   -0.4330 hc        1 MOL      0.056899
     33 H13        -2.1560   -6.1120   -2.1030 hc        1 MOL      0.056899
     34 H14        -4.1940   -4.5960   -2.6820 hc        1 MOL      0.066136
     35 H15        -4.5510   -4.7040   -0.9640 hc        1 MOL      0.066136
     36 H16        -5.0790   -6.9060   -0.9970 hx        1 MOL      0.115952
     37 H17        -4.6370   -7.2190   -2.7080 hx        1 MOL      0.115952
     38 H18        -6.6190   -5.1940   -1.9780 hn        1 MOL      0.304915
     39 H19        -6.5300   -5.9280   -3.4060 hn        1 MOL      0.304915
     40 H20        -7.1050   -6.7690   -2.0900 hn        1 MOL      0.304915
     41 N4          1.4420   -4.8280   -1.0450 n         1 MOL     -0.285629
     42 C13         2.7030   -5.3330   -1.5510 c3        1 MOL      0.086108
     43 C14         3.8280   -5.1490   -0.4520 c         1 MOL      0.361811
     44 O6          4.8790   -5.7850   -0.6400 o         1 MOL     -0.533565
     45 C15         3.1530   -4.7360   -2.9060 c3        1 MOL     -0.349764
     46 C16         3.2070   -3.2300   -2.9320 c         1 MOL      0.670106
     47 O7          3.7460   -2.7390   -3.9730 o         1 MOL     -0.690445
     48 O8          2.8860   -2.5420   -1.9350 o         1 MOL     -0.690445
     49 H21         1.3350   -3.8630   -0.7580 hn        1 MOL      0.142116
     50 H22         2.6440   -6.3830   -1.8220 h1        1 MOL      0.098245
     51 H23         2.4880   -5.2180   -3.6190 hc        1 MOL      0.117442
     52 H24         4.1910   -5.0670   -3.0200 hc        1 MOL      0.117442
     53 N5          3.6860   -4.4150    0.6170 n         1 MOL     -0.120673
     54 C17         4.7790   -4.0100    1.5040 c3        1 MOL     -0.113832
     55 C18         5.7520   -2.9420    0.8660 c         1 MOL      0.607299
     56 O9          6.8690   -2.8670    1.3390 o         1 MOL     -0.596430
     57 H25         2.7750   -4.0250    0.8210 hn        1 MOL      0.164814
     58 H26         5.3750   -4.8690    1.8060 h1        1 MOL      0.069524
     59 H27         4.2770   -3.4390    2.2820 h1        1 MOL      0.069524
     60 N6          5.3800   -2.2220   -0.1550 n         1 MOL     -0.279786
     61 C19         6.2810   -1.1700   -0.6900 c3        1 MOL     -0.150691
     62 C20         6.4500    0.1800    0.0560 c         1 MOL      0.440013
     63 O10         7.0920    1.1220   -0.3930 o         1 MOL     -0.532180
     64 C21         6.0360   -0.9430   -2.1560 c3        1 MOL     -0.305996
     65 C22         4.9140    0.0510   -2.3910 c         1 MOL      0.655999
     66 N7          4.8760    0.7200   -3.5370 n         1 MOL     -0.777190
     67 O11         4.1130    0.2940   -1.5040 o         1 MOL     -0.657483
     68 H28         4.4310   -2.2990   -0.4780 hn        1 MOL      0.276960
     69 H29         7.2980   -1.5680   -0.6880 h1        1 MOL      0.159703
     70 H30         5.8510   -1.9130   -2.6320 hc        1 MOL      0.146716
     71 H31         6.9490   -0.5630   -2.6120 hc        1 MOL      0.146716
     72 H32         5.6700    0.6110   -4.1500 hn        1 MOL      0.372287
     73 H33         4.2370    1.4960   -3.5330 hn        1 MOL      0.372287
     74 N8          5.9350    0.2780    1.2730 n         1 MOL     -0.186813
     75 C23         6.1180    1.4410    2.1210 c3        1 MOL     -0.284162
     76 C24         5.1320    2.5720    2.0280 c         1 MOL      0.625823
     77 O12         5.0240    3.3320    2.9800 o         1 MOL     -0.580895
     78 H34         5.3970   -0.5470    1.4910 hn        1 MOL      0.258131
     79 H35         7.1070    1.8730    1.9510 h1        1 MOL      0.130399
     80 H36         6.0830    1.1810    3.1820 h1        1 MOL      0.130399
     81 N9          4.2980    2.5190    0.9770 n         1 MOL     -0.412926
     82 C25         3.2310    3.4600    0.7620 c3        1 MOL      0.219604
     83 C26         1.8650    2.7730    0.5570 c         1 MOL      0.502719
     84 O13         1.8100    1.6920   -0.0490 o         1 MOL     -0.693434
     85 C27         3.3410    4.2110   -0.6200 c3        1 MOL     -0.201477
     86 C28         4.4510    5.2340   -0.7110 ca        1 MOL      0.021502
     87 C29         5.3630    5.2020   -1.7620 ca        1 MOL     -0.112238
     88 C30         4.4750    6.2660    0.1900 ca        1 MOL     -0.112238
     89 C31         6.3180    6.1360   -1.8750 ca        1 MOL     -0.235756
     90 C32         5.4050    7.3320    0.0400 ca        1 MOL     -0.235756
     91 C33         6.3370    7.2430   -0.9610 ca        1 MOL      0.282538
     92 O14         7.3710    8.0890   -0.9920 oh        1 MOL     -0.465926
     93 H37         4.4070    1.7370    0.3510 hn        1 MOL      0.372638
     94 H38         3.1760    4.1460    1.6080 h1        1 MOL      0.032274
     95 H39         2.4400    4.8110   -0.7550 hc        1 MOL      0.063560
     96 H40         3.5800    3.4950   -1.4070 hc        1 MOL      0.063560
     97 H41         5.3260    4.4240   -2.5160 ha        1 MOL      0.105571
     98 H42         3.6860    6.2560    0.9310 ha        1 MOL      0.105571
     99 H43         7.0610    6.0560   -2.6510 ha        1 MOL      0.141586
    100 H44         5.3760    8.1140    0.7950 ha        1 MOL      0.141586
    101 H45         7.2520    8.9540   -0.5880 ho        1 MOL      0.361297
    102 N10         0.7560    3.3600    1.0980 n         1 MOL     -0.435173
    103 C34        -0.5800    2.9070    0.9010 c3        1 MOL     -0.014528
    104 C35        -1.6980    3.8030    0.4100 c         1 MOL      0.472281
    105 O15        -1.7130    5.0060    0.7410 o         1 MOL     -0.543305
    106 C36        -1.0480    2.1020    2.1660 c3        1 MOL     -0.031939
    107 C37        -1.3810    3.0740    3.3820 c3        1 MOL     -0.277522
    108 C38        -0.1290    0.9900    2.6050 c3        1 MOL     -0.275472
    109 C39        -1.8950    2.3190    4.6450 c3        1 MOL     -0.115364
    110 H46         0.8380    4.0510    1.8280 hn        1 MOL      0.289398
    111 H47        -0.5240    2.2060    0.0640 h1        1 MOL      0.187805
    112 H48        -1.9520    1.5630    1.8440 hc        1 MOL      0.015458
    113 H49        -2.1070    3.7930    2.9790 hc        1 MOL      0.107263
    114 H50        -0.4990    3.6920    3.5670 hc        1 MOL      0.107263
    115 H51         0.2340    0.6210    1.6550 hc        1 MOL      0.135079
    116 H52         0.7300    1.2780    3.2100 hc        1 MOL      0.135079
    117 H53        -0.7100    0.1560    3.0030 hc        1 MOL      0.135079
    118 H54        -2.3140    3.0270    5.3540 hc        1 MOL      0.046956
    119 H55        -2.7610    1.6960    4.4040 hc        1 MOL      0.046956
    120 H56        -1.1270    1.6540    5.0220 hc        1 MOL      0.046956
    121 N11        -2.5390    3.3480   -0.5240 n         1 MOL     -0.324719
    122 C40        -3.6200    4.1450   -1.1060 c3        1 MOL      0.078840
    123 C41        -4.9360    3.7550   -0.3950 c         1 MOL      0.484009
    124 O16        -5.1210    2.7430    0.3060 o         1 MOL     -0.373514
    125 C42        -3.5500    3.7100   -2.6290 c3        1 MOL     -0.002953
    126 O17        -3.9630    2.3780   -2.8230 oh        1 MOL     -0.485542
    127 H57        -2.4430    2.3790   -0.7840 hn        1 MOL      0.173933
    128 H58        -3.4860    5.2310   -1.0750 h1        1 MOL      0.069468
    129 H59        -2.5470    3.9390   -2.9840 h1        1 MOL      0.062298
    130 H60        -4.1680    4.3530   -3.2470 h1        1 MOL      0.062298
    131 H61        -3.3930    1.9210   -3.4500 ho        1 MOL      0.394190
    132 N12        -6.0220    4.4880   -0.7320 n         1 MOL     -0.450025
    133 C43        -7.3190    4.2750   -0.2100 c3        1 MOL      0.003039
    134 C44        -7.7850    2.7970   -0.4540 c         1 MOL      0.446772
    135 O18        -8.3100    2.1990    0.4280 o         1 MOL     -0.441624
    136 C45        -8.3320    5.3400   -0.6730 c3        1 MOL     -0.323920
    137 H62        -5.8980    5.0900   -1.5400 hn        1 MOL      0.277579
    138 H63        -7.2540    4.4580    0.8640 h1        1 MOL      0.134532
    139 H64        -8.5510    5.3180   -1.7460 hc        1 MOL      0.107927
    140 H65        -9.2840    5.3240   -0.1430 hc        1 MOL      0.107927
    141 H66        -8.0070    6.3510   -0.4000 hc        1 MOL      0.107927
    142 N13        -7.5010    2.2510   -1.7060 n         1 MOL     -0.358164
    143 C46        -7.9070    0.8880   -2.0790 c3        1 MOL      0.050907
    144 C47        -7.2730   -0.0460   -1.0340 c         1 MOL      0.375197
    145 O19        -7.9250   -0.8600   -0.3560 o         1 MOL     -0.498363
    146 C48        -7.3680    0.5330   -3.4490 c3        1 MOL     -0.262588
    147 H67        -7.1830    2.9010   -2.4040 hn        1 MOL      0.271903
    148 H68        -8.9860    0.8550   -1.9290 h1        1 MOL      0.098354
    149 H69        -6.2870    0.3960   -3.4660 hc        1 MOL      0.072423
    150 H70        -7.9660   -0.2680   -3.8670 hc        1 MOL      0.072423
    151 H71        -7.4260    1.4230   -4.0740 hc        1 MOL      0.072423
    152 N14        -5.9570    0.0960   -0.7000 n         1 MOL     -0.141166
    153 C49        -5.2150   -0.7870    0.2280 c3        1 MOL     -0.186480
    154 C50        -5.6700   -0.6180    1.6630 c         1 MOL      0.503877
    155 O20        -5.8410   -1.6120    2.3930 o         1 MOL     -0.567634
    156 C51        -3.7070   -0.5090    0.1510 c3        1 MOL      0.231250
    157 C52        -3.0950   -0.6860   -1.2540 c3        1 MOL      0.113959
    158 C53        -1.6180   -0.4710   -1.1760 c         1 MOL      0.583425
    159 O21        -1.0870    0.5460   -1.6820 o         1 MOL     -0.719674
    160 O22        -0.8880   -1.3380   -0.6030 o         1 MOL     -0.719674
    161 H72        -5.4910    0.9340   -1.0380 hn        1 MOL      0.136579
    162 H73        -5.2880   -1.8400   -0.0240 h1        1 MOL      0.060155
    163 H74        -3.2490   -1.1140    0.9260 hc        1 MOL      0.001989
    164 H75        -3.4740    0.4770    0.5250 hc        1 MOL      0.001989
    165 H76        -3.5600   -0.0260   -1.9950 hc        1 MOL     -0.100190
    166 H77        -3.3710   -1.7030   -1.5420 hc        1 MOL     -0.100190
    167 N15        -5.9670    0.5990    2.0640 n         1 MOL     -0.092591
    168 C54        -6.5710    0.9640    3.3890 c3        1 MOL     -0.249646
    169 H78        -7.2880    1.7730    3.2510 h1        1 MOL      0.110399
    170 H79        -7.0790    0.0960    3.8090 h1        1 MOL      0.110399
    171 H80        -5.7840    1.2900    4.0700 h1        1 MOL      0.110399
    172 H81        -5.7760    1.3290    1.3990 hn        1 MOL      0.102850
    173 Ca1         1.4530   -0.4450   -1.5300 Ca        1 MOL      1.791229
    174 O23         1.4440    1.7590   -3.0710 oh        1 MOL     -0.827105
    175 H82         2.1300    2.1510   -3.6230 ho        1 MOL      0.410973
    176 H83         0.8040    2.4470   -2.9650 ho        1 MOL      0.410973
    177 O24         0.5370   -1.6900   -3.6790 oh        1 MOL     -0.827105
    178 H84         0.6300   -1.5350   -4.6150 ho        1 MOL      0.410973
    179 H85         0.1020   -2.5370   -3.6090 ho        1 MOL      0.410973
@<TRIPOS>BOND
     1    1    2 1   
     2    1    4 1   
     3    1    5 1   
     4    1    6 1   
     5    2    3 2   
     6    2    7 1   
     7    7    8 1   
     8    7   15 1   
     9    8    9 1   
    10    8   11 1   
    11    8   16 1   
    12    9   10 2   
    13    9   19 1   
    14   11   12 1   
    15   11   17 1   
    16   11   18 1   
    17   12   13 1   
    18   12   14 1   
    19   19   20 1   
    20   19   28 1   
    21   20   21 1   
    22   20   23 1   
    23   20   29 1   
    24   21   22 2   
    25   21   41 1   
    26   23   24 1   
    27   23   30 1   
    28   23   31 1   
    29   24   25 1   
    30   24   32 1   
    31   24   33 1   
    32   25   26 1   
    33   25   34 1   
    34   25   35 1   
    35   26   27 1   
    36   26   36 1   
    37   26   37 1   
    38   27   38 1   
    39   27   39 1   
    40   27   40 1   
    41   41   42 1   
    42   41   49 1   
    43   42   43 1   
    44   42   45 1   
    45   42   50 1   
    46   43   44 2   
    47   43   53 1   
    48   45   46 1   
    49   45   51 1   
    50   45   52 1   
    51   46   47 1   
    52   46   48 1   
    53   53   54 1   
    54   53   57 1   
    55   54   55 1   
    56   54   58 1   
    57   54   59 1   
    58   55   56 2   
    59   55   60 1   
    60   60   61 1   
    61   60   68 1   
    62   61   62 1   
    63   61   64 1   
    64   61   69 1   
    65   62   63 2   
    66   62   74 1   
    67   64   65 1   
    68   64   70 1   
    69   64   71 1   
    70   65   66 1   
    71   65   67 2   
    72   66   72 1   
    73   66   73 1   
    74   74   75 1   
    75   74   78 1   
    76   75   76 1   
    77   75   79 1   
    78   75   80 1   
    79   76   77 2   
    80   76   81 1   
    81   81   82 1   
    82   81   93 1   
    83   82   83 1   
    84   82   85 1   
    85   82   94 1   
    86   83   84 2   
    87   83  102 1   
    88   85   86 1   
    89   85   95 1   
    90   85   96 1   
    91   86   87 ar  
    92   86   88 ar  
    93   87   89 ar  
    94   87   97 1   
    95   88   90 ar  
    96   88   98 1   
    97   89   91 ar  
    98   89   99 1   
    99   90   91 ar  
   100   90  100 1   
   101   91   92 1   
   102   92  101 1   
   103  102  103 1   
   104  102  110 1   
   105  103  104 1   
   106  103  106 1   
   107  103  111 1   
   108  104  105 2   
   109  104  121 1   
   110  106  107 1   
   111  106  108 1   
   112  106  112 1   
   113  107  109 1   
   114  107  113 1   
   115  107  114 1   
   116  108  115 1   
   117  108  116 1   
   118  108  117 1   
   119  109  118 1   
   120  109  119 1   
   121  109  120 1   
   122  121  122 1   
   123  121  127 1   
   124  122  123 1   
   125  122  125 1   
   126  122  128 1   
   127  123  124 2   
   128  123  132 1   
   129  125  126 1   
   130  125  129 1   
   131  125  130 1   
   132  126  131 1   
   133  132  133 1   
   134  132  137 1   
   135  133  134 1   
   136  133  136 1   
   137  133  138 1   
   138  134  135 2   
   139  134  142 1   
   140  136  139 1   
   141  136  140 1   
   142  136  141 1   
   143  142  143 1   
   144  142  147 1   
   145  143  144 1   
   146  143  146 1   
   147  143  148 1   
   148  144  145 2   
   149  144  152 1   
   150  146  149 1   
   151  146  150 1   
   152  146  151 1   
   153  152  153 1   
   154  152  161 1   
   155  153  154 1   
   156  153  156 1   
   157  153  162 1   
   158  154  155 2   
   159  154  167 1   
   160  156  157 1   
   161  156  163 1   
   162  156  164 1   
   163  157  158 1   
   164  157  165 1   
   165  157  166 1   
   166  158  159 1   
   167  158  160 1   
   168  167  168 1   
   169  167  172 1   
   170  168  169 1   
   171  168  170 1   
   172  168  171 1   
   173  174  175 1   
   174  174  176 1   
   175  177  178 1   
   176  177  179 1   
@<TRIPOS>SUBSTRUCTURE
     1 MOL         1 TEMP              0 ****  ****    0 ROOT
