@<TRIPOS>MOLECULE
MOL
  189   185     1     0     0
SMALL
resp


@<TRIPOS>ATOM
      1 C1          0.9260   -2.9420    6.1500 c3        1 MOL     -0.442159
      2 C2          0.9000   -2.8250    4.5770 c         1 MOL      0.789871
      3 O1          0.4520   -1.7940    4.0600 o         1 MOL     -0.596272
      4 H1          0.6590   -3.9580    6.4430 hc        1 MOL      0.108227
      5 H2          1.9260   -2.7100    6.5160 hc        1 MOL      0.108227
      6 H3          0.2100   -2.2410    6.5790 hc        1 MOL      0.108227
      7 N1          1.4060   -3.9030    3.9590 n         1 MOL     -0.692102
      8 C3          2.0510   -3.6490    2.6740 c3        1 MOL      0.237917
      9 C4          2.2180   -4.8320    1.6680 c         1 MOL      0.489151
     10 O2          2.5920   -5.9190    2.0530 o         1 MOL     -0.577763
     11 C5          3.4720   -3.1680    3.0590 c3        1 MOL     -0.330287
     12 C6          4.3320   -2.6080    1.8890 c         1 MOL      0.879450
     13 O3          3.8450   -2.2980    0.7590 o         1 MOL     -0.722553
     14 O4          5.5520   -2.4440    2.1160 o         1 MOL     -0.722553
     15 H4          1.6940   -4.7380    4.4430 hn        1 MOL      0.357644
     16 H5          1.5680   -2.8550    2.0990 h1        1 MOL      0.128877
     17 H6          4.0060   -4.0700    3.3730 hc        1 MOL      0.053092
     18 H7          3.4760   -2.4180    3.8490 hc        1 MOL      0.053092
     19 N2          1.9430   -4.6270    0.3870 n         1 MOL     -0.300324
     20 C7          2.0210   -5.5800   -0.7190 c3        1 MOL     -0.001182
     21 C8          3.1030   -5.2140   -1.7490 c         1 MOL      0.476107
     22 O5          3.4490   -6.1300   -2.6080 o         1 MOL     -0.565427
     23 C9          0.6190   -5.7860   -1.3280 c3        1 MOL      0.264255
     24 C10         0.3680   -7.0690   -2.0700 c3        1 MOL     -0.066729
     25 C11         0.1140   -4.5730   -2.0830 c3        1 MOL     -0.140990
     26 C12         0.5020   -8.2740   -1.1220 c3        1 MOL     -0.334096
     27 H8          1.6320   -3.6860    0.2280 hn        1 MOL      0.076193
     28 H9          2.3960   -6.4700   -0.2160 h1        1 MOL      0.107824
     29 H10        -0.0180   -5.8690   -0.4510 hc        1 MOL     -0.027349
     30 H11         1.0720   -7.1510   -2.9000 hc        1 MOL      0.030137
     31 H12        -0.6610   -7.1440   -2.4100 hc        1 MOL      0.030137
     32 H13        -0.9700   -4.6430   -2.1900 hc        1 MOL      0.028407
     33 H14         0.3190   -3.6310   -1.5680 hc        1 MOL      0.028407
     34 H15         0.4950   -4.6060   -3.1000 hc        1 MOL      0.028407
     35 H16         1.5170   -8.3180   -0.7120 hc        1 MOL      0.072623
     36 H17        -0.2860   -8.2910   -0.3640 hc        1 MOL      0.072623
     37 H18         0.1740   -9.1090   -1.7320 hc        1 MOL      0.072623
     38 N3          3.6310   -4.0130   -1.7380 n         1 MOL     -0.404896
     39 C13         4.5670   -3.5800   -2.8510 c3        1 MOL      0.021414
     40 C14         5.8230   -2.8420   -2.3460 c         1 MOL      0.444635
     41 O6          6.8260   -2.7910   -3.0360 o         1 MOL     -0.598251
     42 C15         3.8020   -2.8110   -3.9140 c3        1 MOL     -0.185270
     43 C16         3.0670   -1.5810   -3.3110 c         1 MOL      0.675684
     44 O7          3.5650   -0.9770   -2.3170 o         1 MOL     -0.649893
     45 O8          2.0670   -1.2060   -3.9770 o         1 MOL     -0.649893
     46 H19         3.2870   -3.2570   -1.1440 hn        1 MOL      0.302639
     47 H20         4.9890   -4.4930   -3.2900 h1        1 MOL      0.083111
     48 H21         3.0010   -3.4570   -4.2850 hc        1 MOL      0.061939
     49 H22         4.3980   -2.4840   -4.7560 hc        1 MOL      0.061939
     50 N4          5.8530   -2.3150   -1.1510 n         1 MOL     -0.006746
     51 C17         7.1300   -1.8470   -0.5850 c3        1 MOL     -0.409771
     52 C18         7.4180   -0.4280   -1.0380 c         1 MOL      0.642157
     53 O9          8.4400    0.1480   -0.7390 o         1 MOL     -0.642802
     54 H23         5.0340   -2.3280   -0.5770 hn        1 MOL      0.053486
     55 H24         7.9240   -2.4590   -1.0210 h1        1 MOL      0.157884
     56 H25         7.1720   -1.8240    0.5010 h1        1 MOL      0.157884
     57 N5          6.4180    0.1940   -1.7240 n         1 MOL     -0.329787
     58 C19         6.5610    1.4990   -2.3500 c3        1 MOL      0.026323
     59 C20         6.6480    2.7200   -1.4230 c         1 MOL      0.391909
     60 O10         6.6290    3.8790   -1.9330 o         1 MOL     -0.545128
     61 C21         5.3980    1.7630   -3.3650 c3        1 MOL     -0.305249
     62 C22         4.0670    2.1400   -2.7470 c         1 MOL      0.840449
     63 O11         3.8820    1.9200   -1.5230 o         1 MOL     -0.732885
     64 O12         3.1740    2.6440   -3.4810 o         1 MOL     -0.732885
     65 H26         5.6420   -0.3860   -1.9920 hn        1 MOL      0.239327
     66 H27         7.5100    1.4730   -2.8890 h1        1 MOL      0.071153
     67 H28         5.2200    0.9140   -4.0370 hc        1 MOL      0.076056
     68 H29         5.6920    2.6170   -3.9670 hc        1 MOL      0.076056
     69 N6          6.6840    2.4960   -0.1110 n         1 MOL     -0.186354
     70 C23         6.7740    3.5700    0.8920 c3        1 MOL     -0.322109
     71 C24         5.4810    4.3450    1.2520 c         1 MOL      0.665628
     72 O13         5.6300    5.0970    2.1230 o         1 MOL     -0.583333
     73 H30         6.6970    1.5270    0.1760 hn        1 MOL      0.274252
     74 H31         7.4480    4.3210    0.4740 h1        1 MOL      0.122699
     75 H32         7.1610    3.1370    1.8130 h1        1 MOL      0.122699
     76 N7          4.2970    4.1050    0.6450 n         1 MOL     -0.456023
     77 C25         3.0220    4.6790    1.0780 c3        1 MOL      0.087839
     78 C26         2.0110    3.5160    1.2450 c         1 MOL      0.536350
     79 O14         1.9670    2.5350    0.5040 o         1 MOL     -0.591660
     80 C27         2.5110    5.7080    0.1060 c3        1 MOL      0.050889
     81 C28         3.3690    6.9920    0.1490 c3        1 MOL     -0.364597
     82 C29         2.7730    8.0880   -0.7700 c         1 MOL      0.690143
     83 N8          2.6520    7.8880   -2.0180 n         1 MOL     -0.801378
     84 O15         2.4230    9.2070   -0.3310 o         1 MOL     -0.616204
     85 H33         4.3260    3.4480   -0.1180 hn        1 MOL      0.272897
     86 H34         3.1430    5.1360    2.0570 h1        1 MOL      0.038296
     87 H35         1.4760    5.9480    0.3380 hc        1 MOL      0.039036
     88 H36         2.5570    5.3700   -0.9350 hc        1 MOL      0.039036
     89 H37         4.3570    6.7090   -0.2280 hc        1 MOL      0.118772
     90 H38         3.4570    7.3700    1.1590 hc        1 MOL      0.118772
     91 H39         2.8380    6.9720   -2.4110 hn        1 MOL      0.375891
     92 H40         2.3510    8.6000   -2.6590 hn        1 MOL      0.375891
     93 N9          1.1000    3.8090    2.1980 n         1 MOL     -0.614565
     94 C30        -0.1010    2.8950    2.3850 c3        1 MOL      0.013411
     95 C31        -1.3000    3.2760    1.4540 c         1 MOL      0.619507
     96 O16        -1.5990    4.4610    1.2820 o         1 MOL     -0.617483
     97 C32        -0.4930    2.8230    3.8900 c3        1 MOL      0.044529
     98 C33        -1.1060    4.1230    4.4780 c3        1 MOL     -0.160099
     99 C34        -1.3350    1.5540    4.2170 c3        1 MOL     -0.160099
    100 H41         1.0450    4.7470    2.5600 hn        1 MOL      0.344689
    101 H42         0.3500    1.9310    2.1340 h1        1 MOL      0.192560
    102 H43         0.4190    2.7640    4.4820 hc        1 MOL      0.035033
    103 H44        -2.1680    4.2960    4.2880 hc        1 MOL      0.032675
    104 H45        -1.0820    3.9690    5.5530 hc        1 MOL      0.032675
    105 H46        -0.4560    4.9680    4.2860 hc        1 MOL      0.032675
    106 H47        -1.3580    1.3660    5.2890 hc        1 MOL      0.032675
    107 H48        -2.3340    1.6720    3.8040 hc        1 MOL      0.032675
    108 H49        -0.7780    0.7400    3.7360 hc        1 MOL      0.032675
    109 N10        -1.9240    2.2920    0.8450 n         1 MOL     -0.232510
    110 C35        -3.1670    2.4760    0.0640 c3        1 MOL      0.151535
    111 C36        -4.3070    1.8190    0.7640 c         1 MOL      0.013013
    112 O17        -4.0520    0.8920    1.5680 o         1 MOL     -0.182067
    113 C37        -2.9290    1.8040   -1.3340 c3        1 MOL     -0.375524
    114 C38        -4.2320    1.6680   -2.1710 c         1 MOL      0.671247
    115 N11        -4.8090    2.7220   -2.6460 n         1 MOL     -0.715541
    116 O18        -4.8550    0.6320   -2.2520 o         1 MOL     -0.507017
    117 H50        -1.5710    1.3530    0.9630 hn        1 MOL      0.146096
    118 H51        -3.4450    3.5230   -0.1020 h1        1 MOL      0.062805
    119 H52        -2.5770    0.7690   -1.3430 hc        1 MOL      0.144851
    120 H53        -2.2110    2.3780   -1.9250 hc        1 MOL      0.144851
    121 H54        -4.3400    3.6130   -2.5910 hn        1 MOL      0.336600
    122 H55        -5.6260    2.6190   -3.2250 hn        1 MOL      0.336600
    123 N12        -5.5020    2.2610    0.5030 n         1 MOL     -0.069849
    124 C39        -6.6730    1.6730    1.2060 c3        1 MOL      0.055823
    125 C40        -6.7120    0.1310    1.1740 c         1 MOL      0.363751
    126 O19        -7.0730   -0.4950    2.2000 o         1 MOL     -0.583229
    127 C41        -8.0360    2.3070    0.8130 c3        1 MOL     -0.287200
    128 C42        -8.2150    2.4230   -0.7560 ca        1 MOL      0.068821
    129 C43        -8.8600    1.3760   -1.4330 ca        1 MOL     -0.133685
    130 C44        -7.7310    3.5510   -1.4230 ca        1 MOL     -0.133685
    131 C45        -9.1100    1.5990   -2.8620 ca        1 MOL     -0.357770
    132 C46        -7.8940    3.7780   -2.8420 ca        1 MOL     -0.357770
    133 C47        -8.5820    2.7180   -3.5780 ca        1 MOL      0.436870
    134 O20        -8.7210    2.9090   -4.9500 oh        1 MOL     -0.566471
    135 H56        -5.6030    2.9550   -0.2280 hn        1 MOL      0.124257
    136 H57        -6.5090    1.9860    2.2340 h1        1 MOL      0.100665
    137 H58        -8.0770    3.3160    1.2290 hc        1 MOL      0.100812
    138 H59        -8.8810    1.7020    1.1020 hc        1 MOL      0.100812
    139 H60        -9.2720    0.5330   -0.9110 ha        1 MOL      0.147097
    140 H61        -7.2320    4.2600   -0.7760 ha        1 MOL      0.147097
    141 H62        -9.6640    0.8890   -3.4460 ha        1 MOL      0.176204
    142 H63        -7.5140    4.6590   -3.3280 ha        1 MOL      0.176204
    143 H64        -9.1100    2.1460   -5.3640 ho        1 MOL      0.418198
    144 N13        -6.2730   -0.5640    0.1180 n         1 MOL      0.010429
    145 C48        -6.3560   -2.0410    0.1810 c3        1 MOL     -0.197033
    146 C49        -5.1530   -2.6570    0.9350 c         1 MOL      0.367191
    147 O21        -5.0630   -3.9120    1.0430 o         1 MOL     -0.557318
    148 C50        -6.4600   -2.5760   -1.2710 c3        1 MOL      0.000486
    149 C51        -7.7180   -2.1050   -2.0200 c3        1 MOL     -0.242703
    150 C52        -7.9070   -2.8950   -3.2970 c         1 MOL      0.683762
    151 O22        -8.9730   -3.5130   -3.6640 o         1 MOL     -0.730207
    152 O23        -6.9390   -2.8310   -4.1070 o         1 MOL     -0.730207
    153 H65        -5.7340   -0.1410   -0.6270 hn        1 MOL      0.167723
    154 H66        -7.2880   -2.3130    0.6670 h1        1 MOL      0.151394
    155 H67        -6.4100   -3.6630   -1.3230 hc        1 MOL      0.061947
    156 H68        -5.5900   -2.1940   -1.8000 hc        1 MOL      0.061947
    157 H69        -7.6220   -1.0410   -2.2220 hc        1 MOL      0.039209
    158 H70        -8.5850   -2.2440   -1.3760 hc        1 MOL      0.039209
    159 N14        -4.2720   -1.8800    1.5350 n         1 MOL     -0.047063
    160 C53        -3.1670   -2.3140    2.4110 c3        1 MOL     -0.001903
    161 C54        -3.4420   -1.7540    3.8230 c         1 MOL      0.352868
    162 O24        -3.1220   -2.4630    4.8120 o         1 MOL     -0.552531
    163 C55        -1.8160   -1.8090    1.9540 c3        1 MOL      0.137414
    164 C56        -1.5050   -1.8660    0.4740 c3        1 MOL     -0.117744
    165 C57        -0.1010   -1.1880    0.2760 c         1 MOL      0.844719
    166 O25         0.0210    0.0590    0.4400 o         1 MOL     -0.751458
    167 O26         0.8860   -1.8330   -0.1020 o         1 MOL     -0.751458
    168 H71        -4.4940   -0.8940    1.4510 hn        1 MOL      0.012530
    169 H72        -3.1870   -3.4070    2.4500 h1        1 MOL      0.088367
    170 H73        -1.0600   -2.4180    2.4670 hc        1 MOL     -0.014760
    171 H74        -1.7720   -0.7470    2.1620 hc        1 MOL     -0.014760
    172 H75        -2.3320   -1.4030   -0.0630 hc        1 MOL      0.001746
    173 H76        -1.2860   -2.9160    0.2640 hc        1 MOL      0.001746
    174 N15        -4.2230   -0.6820    3.9900 n         1 MOL     -0.117739
    175 C58        -4.5830   -0.0050    5.3160 c3        1 MOL     -0.042899
    176 H77        -4.6850   -0.7620    6.0940 h1        1 MOL      0.046151
    177 H78        -3.7960    0.6960    5.5930 h1        1 MOL      0.046151
    178 H79        -5.5260    0.5310    5.2070 h1        1 MOL      0.046151
    179 H80        -4.3210   -0.1400    3.1510 hn        1 MOL      0.080953
    180 Ca1         2.5920    0.1080   -0.1680 Ca        1 MOL      1.731279
    181 O27         5.1020    0.3260    1.1330 oh        1 MOL     -0.856138
    182 H81         5.2200   -0.4840    1.6300 ho        1 MOL      0.394941
    183 H82         5.3590    1.0140    1.7460 ho        1 MOL      0.394941
    184 O28         2.2210   -0.2390    2.4760 oh        1 MOL     -0.856138
    185 H83         2.8030   -0.2590    3.2420 ho        1 MOL      0.394941
    186 H84         1.4690   -0.7740    2.7290 ho        1 MOL      0.394941
    187 O29         1.1420    0.8540   -2.4550 oh        1 MOL     -0.856138
    188 H85         1.6430    0.2140   -2.9680 ho        1 MOL      0.394941
    189 H86         1.5230    1.6950   -2.6870 ho        1 MOL      0.394941
@<TRIPOS>BOND
     1    1    2 1   
     2    1    4 1   
     3    1    5 1   
     4    1    6 1   
     5    2    3 2   
     6    2    7 1   
     7    7    8 1   
     8    7   15 1   
     9    8    9 1   
    10    8   11 1   
    11    8   16 1   
    12    9   10 2   
    13    9   19 1   
    14   11   12 1   
    15   11   17 1   
    16   11   18 1   
    17   12   13 1   
    18   12   14 1   
    19   19   20 1   
    20   19   27 1   
    21   20   21 1   
    22   20   23 1   
    23   20   28 1   
    24   21   22 2   
    25   21   38 1   
    26   23   24 1   
    27   23   25 1   
    28   23   29 1   
    29   24   26 1   
    30   24   30 1   
    31   24   31 1   
    32   25   32 1   
    33   25   33 1   
    34   25   34 1   
    35   26   35 1   
    36   26   36 1   
    37   26   37 1   
    38   38   39 1   
    39   38   46 1   
    40   39   40 1   
    41   39   42 1   
    42   39   47 1   
    43   40   41 2   
    44   40   50 1   
    45   42   43 1   
    46   42   48 1   
    47   42   49 1   
    48   43   44 1   
    49   43   45 1   
    50   50   51 1   
    51   50   54 1   
    52   51   52 1   
    53   51   55 1   
    54   51   56 1   
    55   52   53 2   
    56   52   57 1   
    57   57   58 1   
    58   57   65 1   
    59   58   59 1   
    60   58   61 1   
    61   58   66 1   
    62   59   60 2   
    63   59   69 1   
    64   61   62 1   
    65   61   67 1   
    66   61   68 1   
    67   62   63 1   
    68   62   64 1   
    69   69   70 1   
    70   69   73 1   
    71   70   71 1   
    72   70   74 1   
    73   70   75 1   
    74   71   72 2   
    75   71   76 1   
    76   76   77 1   
    77   76   85 1   
    78   77   78 1   
    79   77   80 1   
    80   77   86 1   
    81   78   79 2   
    82   78   93 1   
    83   80   81 1   
    84   80   87 1   
    85   80   88 1   
    86   81   82 1   
    87   81   89 1   
    88   81   90 1   
    89   82   83 1   
    90   82   84 2   
    91   83   91 1   
    92   83   92 1   
    93   93   94 1   
    94   93  100 1   
    95   94   95 1   
    96   94   97 1   
    97   94  101 1   
    98   95   96 2   
    99   95  109 1   
   100   97   98 1   
   101   97   99 1   
   102   97  102 1   
   103   98  103 1   
   104   98  104 1   
   105   98  105 1   
   106   99  106 1   
   107   99  107 1   
   108   99  108 1   
   109  109  110 1   
   110  109  117 1   
   111  110  111 1   
   112  110  113 1   
   113  110  118 1   
   114  111  112 2   
   115  111  123 1   
   116  113  114 1   
   117  113  119 1   
   118  113  120 1   
   119  114  115 1   
   120  114  116 2   
   121  115  121 1   
   122  115  122 1   
   123  123  124 1   
   124  123  135 1   
   125  124  125 1   
   126  124  127 1   
   127  124  136 1   
   128  125  126 2   
   129  125  144 1   
   130  127  128 1   
   131  127  137 1   
   132  127  138 1   
   133  128  129 ar  
   134  128  130 ar  
   135  129  131 ar  
   136  129  139 1   
   137  130  132 ar  
   138  130  140 1   
   139  131  133 ar  
   140  131  141 1   
   141  132  133 ar  
   142  132  142 1   
   143  133  134 1   
   144  134  143 1   
   145  144  145 1   
   146  144  153 1   
   147  145  146 1   
   148  145  148 1   
   149  145  154 1   
   150  146  147 2   
   151  146  159 1   
   152  148  149 1   
   153  148  155 1   
   154  148  156 1   
   155  149  150 1   
   156  149  157 1   
   157  149  158 1   
   158  150  151 1   
   159  150  152 1   
   160  159  160 1   
   161  159  168 1   
   162  160  161 1   
   163  160  163 1   
   164  160  169 1   
   165  161  162 2   
   166  161  174 1   
   167  163  164 1   
   168  163  170 1   
   169  163  171 1   
   170  164  165 1   
   171  164  172 1   
   172  164  173 1   
   173  165  166 1   
   174  165  167 1   
   175  174  175 1   
   176  174  179 1   
   177  175  176 1   
   178  175  177 1   
   179  175  178 1   
   180  181  182 1   
   181  181  183 1   
   182  184  185 1   
   183  184  186 1   
   184  187  188 1   
   185  187  189 1   
@<TRIPOS>SUBSTRUCTURE
     1 MOL         1 TEMP              0 ****  ****    0 ROOT
