@<TRIPOS>MOLECULE
MOL
  189   185     1     0     0
SMALL
resp


@<TRIPOS>ATOM
      1 C1          0.5360    2.1990    5.2630 c3        1 MOL     -0.268851
      2 C2         -0.0890    2.3140    3.8700 c         1 MOL      0.607746
      3 O1          0.4920    2.7690    2.8950 o         1 MOL     -0.633133
      4 H1          1.3050    1.4270    5.2530 hc        1 MOL      0.076266
      5 H2          0.9820    3.1530    5.5410 hc        1 MOL      0.076266
      6 H3         -0.2350    1.9330    5.9870 hc        1 MOL      0.076266
      7 N1         -1.3040    1.7400    3.7100 n         1 MOL     -0.467735
      8 C3         -1.9880    1.6700    2.4140 c3        1 MOL      0.187261
      9 C4         -2.6050    2.9470    1.8310 c         1 MOL      0.111817
     10 O2         -3.7120    3.4170    2.2040 o         1 MOL     -0.463638
     11 C5         -3.1350    0.6000    2.7080 c3        1 MOL     -0.060397
     12 C6         -3.9000    0.2660    1.4070 c         1 MOL      0.615012
     13 O3         -3.3960    0.4190    0.2820 o         1 MOL     -0.644693
     14 O4         -5.0730   -0.1700    1.5980 o         1 MOL     -0.644693
     15 H4         -1.7390    1.3680    4.5430 hn        1 MOL      0.287806
     16 H5         -1.3040    1.3210    1.6460 h1        1 MOL      0.031971
     17 H6         -3.7870    0.9220    3.5110 hc        1 MOL      0.034211
     18 H7         -2.6150   -0.2840    3.0680 hc        1 MOL      0.034211
     19 N2         -1.8540    3.6060    0.9720 n         1 MOL      0.197251
     20 C7         -1.9530    4.9560    0.5390 c3        1 MOL      0.000903
     21 C8         -3.1170    5.0250   -0.4670 c         1 MOL      0.360984
     22 O5         -3.9050    6.0000   -0.4430 o         1 MOL     -0.571491
     23 C9         -0.6310    5.3980   -0.0460 c3        1 MOL     -0.273407
     24 C10         0.4050    5.7330    1.0470 c3        1 MOL      0.157661
     25 C11         0.1950    6.8800    2.0100 c3        1 MOL     -0.112789
     26 C12         1.0490    6.7620    3.2760 c3        1 MOL     -0.104376
     27 N3          0.6030    7.8240    4.1120 n4        1 MOL     -0.241620
     28 H8         -0.9330    3.1870    0.9740 hn        1 MOL      0.227987
     29 H9         -2.2200    5.6390    1.3480 h1        1 MOL      0.045349
     30 H10        -0.7800    6.2500   -0.7030 hc        1 MOL      0.086424
     31 H11        -0.2850    4.5790   -0.6780 hc        1 MOL      0.086424
     32 H12         1.3480    5.9300    0.5360 hc        1 MOL     -0.005034
     33 H13         0.4340    4.8690    1.7120 hc        1 MOL     -0.005034
     34 H14        -0.8660    6.9000    2.2360 hc        1 MOL      0.050642
     35 H15         0.4740    7.7900    1.4590 hc        1 MOL      0.050642
     36 H16         2.0680    6.9530    2.9340 hx        1 MOL      0.133833
     37 H17         0.7570    5.9060    3.8830 hx        1 MOL      0.133833
     38 H18         1.1460    7.9180    4.9560 hn        1 MOL      0.300184
     39 H19         0.6090    8.7240    3.6610 hn        1 MOL      0.300184
     40 H20        -0.3360    7.5800    4.3910 hn        1 MOL      0.300184
     41 N4         -3.1840    4.1430   -1.4140 n         1 MOL     -0.148431
     42 C13        -4.3070    4.0410   -2.3070 c3        1 MOL      0.023830
     43 C14        -5.4350    3.1260   -1.6620 c         1 MOL      0.336473
     44 O6         -6.5340    3.0380   -2.2260 o         1 MOL     -0.499645
     45 C15        -3.9230    3.5720   -3.6540 c3        1 MOL     -0.315565
     46 C16        -2.9880    2.3530   -3.7790 c         1 MOL      0.773860
     47 O7         -2.6290    1.6610   -2.7940 o         1 MOL     -0.689100
     48 O8         -2.4490    2.1880   -4.8710 o         1 MOL     -0.689100
     49 H21        -2.4680    3.4380   -1.4280 hn        1 MOL      0.169988
     50 H22        -4.6780    5.0600   -2.3730 h1        1 MOL      0.120577
     51 H23        -3.3840    4.4540   -3.9860 hc        1 MOL      0.084579
     52 H24        -4.7720    3.4420   -4.3340 hc        1 MOL      0.084579
     53 N5         -5.2720    2.5990   -0.4090 n         1 MOL      0.159398
     54 C17        -6.4510    2.2570    0.4060 c3        1 MOL     -0.231563
     55 C18        -7.1970    1.1290   -0.2370 c         1 MOL      0.445235
     56 O9         -8.4640    1.0510   -0.1900 o         1 MOL     -0.566637
     57 H25        -4.3400    2.5510   -0.0070 hn        1 MOL     -0.202049
     58 H26        -7.1900    3.0530    0.4390 h1        1 MOL      0.135627
     59 H27        -6.1930    1.9860    1.4330 h1        1 MOL      0.135627
     60 N6         -6.4380    0.1920   -0.8430 n         1 MOL     -0.050476
     61 C19        -7.0370   -1.0280   -1.5530 c3        1 MOL     -0.032066
     62 C20        -7.2330   -2.2610   -0.6390 c         1 MOL      0.391705
     63 O10        -7.9810   -3.1870   -0.9950 o         1 MOL     -0.512112
     64 C21        -6.2370   -1.5730   -2.7150 c3        1 MOL     -0.200946
     65 C22        -4.7390   -1.6330   -2.5360 c         1 MOL      0.638591
     66 O11        -4.3240   -2.2110   -1.5160 o         1 MOL     -0.674488
     67 O12        -3.8780   -1.2000   -3.3710 o         1 MOL     -0.674488
     68 H28        -5.4450    0.2860   -0.7060 hn        1 MOL      0.025617
     69 H29        -8.0610   -0.7640   -1.8530 h1        1 MOL      0.122736
     70 H30        -6.4710   -0.8210   -3.4730 hc        1 MOL      0.076792
     71 H31        -6.7150   -2.5090   -3.0210 hc        1 MOL      0.076792
     72 N7         -6.6640   -2.3270    0.6110 n         1 MOL     -0.263494
     73 C23        -6.6070   -3.4510    1.5500 c3        1 MOL      0.011382
     74 C24        -5.3840   -4.3420    1.4400 c         1 MOL      0.550628
     75 O13        -5.3830   -5.4630    2.0140 o         1 MOL     -0.612996
     76 H32        -6.0860   -1.5500    0.9010 hn        1 MOL      0.228074
     77 H33        -7.5200   -4.0570    1.5290 h1        1 MOL      0.044290
     78 H34        -6.5480   -3.0370    2.5540 h1        1 MOL      0.044290
     79 N8         -4.3470   -3.8060    0.8590 n         1 MOL     -0.322144
     80 C25        -3.0810   -4.5500    0.6700 c3        1 MOL     -0.291184
     81 C26        -1.8730   -3.6000    0.7710 c         1 MOL      0.614840
     82 O14        -1.9590   -2.4290    0.3540 o         1 MOL     -0.631084
     83 C27        -3.1010   -5.4520   -0.5680 c3        1 MOL      0.797362
     84 C28        -3.6420   -6.8570   -0.3870 c3        1 MOL     -0.422449
     85 O15        -3.5700   -4.7600   -1.6590 oh        1 MOL     -0.827628
     86 H35        -4.5340   -2.9540    0.3590 hn        1 MOL      0.282454
     87 H36        -3.0080   -5.2720    1.4820 h1        1 MOL      0.098694
     88 H37        -2.0370   -5.6190   -0.7520 h1        1 MOL     -0.134772
     89 H38        -3.6160   -3.7970   -1.6400 ho        1 MOL      0.575861
     90 H39        -4.7170   -6.9120   -0.2250 hc        1 MOL      0.093060
     91 H40        -3.3720   -7.3680   -1.3130 hc        1 MOL      0.093060
     92 H41        -3.0330   -7.3170    0.3890 hc        1 MOL      0.093060
     93 N9         -0.7500   -4.1020    1.2100 n         1 MOL     -0.533310
     94 C29         0.4950   -3.3710    1.4670 c3        1 MOL     -0.007340
     95 C30         1.7260   -3.8320    0.6260 c         1 MOL      0.666475
     96 O16         2.0310   -5.0110    0.7190 o         1 MOL     -0.575678
     97 C31         0.8820   -3.2210    2.9990 c3        1 MOL      0.322263
     98 C32        -0.2940   -2.9410    3.9480 c3        1 MOL      0.092790
     99 C33         1.8460   -1.9990    3.0550 c3        1 MOL     -0.667320
    100 C34        -0.0640   -2.9810    5.4110 c3        1 MOL     -0.197791
    101 H42        -0.8380   -5.0290    1.5980 hn        1 MOL      0.282836
    102 H43         0.4040   -2.3330    1.1430 h1        1 MOL      0.087527
    103 H44         1.4010   -4.1420    3.2550 hc        1 MOL     -0.055866
    104 H45        -1.0160   -3.7330    3.7870 hc        1 MOL     -0.001883
    105 H46        -0.6490   -1.9330    3.7290 hc        1 MOL     -0.001883
    106 H47         1.3500   -1.0680    2.7970 hc        1 MOL      0.119757
    107 H48         2.2940   -2.0170    4.0530 hc        1 MOL      0.119757
    108 H49         2.7660   -2.1380    2.4820 hc        1 MOL      0.119757
    109 H50         0.0960   -4.0190    5.6980 hc        1 MOL      0.044279
    110 H51         0.7630   -2.3450    5.7400 hc        1 MOL      0.044279
    111 H52        -1.0460   -2.8120    5.8620 hc        1 MOL      0.044279
    112 N10         2.3470   -2.9160   -0.0950 n         1 MOL     -0.453123
    113 C35         3.6390   -3.1680   -0.7020 c3        1 MOL      0.056789
    114 C36         4.8350   -2.9540    0.1810 c         1 MOL      0.468124
    115 O17         4.8630   -2.2010    1.1630 o         1 MOL     -0.348533
    116 C37         3.8080   -2.5870   -2.1630 c3        1 MOL      0.232826
    117 C38         2.6560   -2.7660   -3.1390 c3        1 MOL     -0.491268
    118 O18         4.0760   -1.2030   -2.1260 oh        1 MOL     -0.348617
    119 H53         2.0700   -1.9430   -0.0040 hn        1 MOL      0.345808
    120 H54         3.6140   -4.2500   -0.8260 h1        1 MOL      0.052552
    121 H55         4.6960   -3.0560   -2.5780 h1        1 MOL     -0.003590
    122 H56         4.0180   -1.0520   -3.0690 ho        1 MOL      0.324417
    123 H57         2.9900   -2.5900   -4.1590 hc        1 MOL      0.136995
    124 H58         2.2900   -3.7890   -3.0210 hc        1 MOL      0.136995
    125 H59         1.8190   -2.1420   -2.8220 hc        1 MOL      0.136995
    126 N11         5.9460   -3.5310   -0.2700 n         1 MOL     -0.470999
    127 C39         7.3060   -3.1410    0.2130 c3        1 MOL     -0.063884
    128 C40         7.5290   -1.6450    0.1520 c         1 MOL      0.265966
    129 O19         7.9800   -1.1290    1.1810 o         1 MOL     -0.475564
    130 C41         8.2970   -3.7600   -0.7960 c3        1 MOL      0.372097
    131 C42         8.3940   -5.2880   -0.7280 c3        1 MOL     -0.480299
    132 O20         8.0330   -3.3960   -2.1840 oh        1 MOL     -0.608629
    133 H60         5.9190   -4.0830   -1.1140 hn        1 MOL      0.311376
    134 H61         7.4770   -3.5570    1.2050 h1        1 MOL      0.154322
    135 H62         9.2800   -3.3480   -0.5640 h1        1 MOL      0.032312
    136 H63         8.8420   -3.0830   -2.5820 ho        1 MOL      0.393714
    137 H64         7.9420   -5.7140   -1.6240 hc        1 MOL      0.133620
    138 H65         9.4660   -5.5000   -0.7020 hc        1 MOL      0.133620
    139 H66         8.1000   -5.6860    0.2460 hc        1 MOL      0.133620
    140 N12         7.0570   -0.9390   -0.8770 n         1 MOL     -0.166137
    141 C43         7.3430    0.5170   -0.9550 c3        1 MOL      0.027439
    142 C44         6.3110    1.2480   -0.0540 c         1 MOL      0.300779
    143 O21         6.6710    2.2240    0.5580 o         1 MOL     -0.531483
    144 C45         7.3440    1.0410   -2.4460 c3        1 MOL     -0.170756
    145 C46         7.3220    2.5920   -2.4870 c3        1 MOL      0.046854
    146 C47         7.5840    3.2420   -3.8640 c3        1 MOL      0.033604
    147 C48         7.2660    4.7310   -3.6810 c3        1 MOL      0.022856
    148 N13         7.2720    5.3850   -5.0600 n4        1 MOL     -0.441347
    149 H67         6.7850   -1.4660   -1.6980 hn        1 MOL      0.166212
    150 H68         8.3090    0.8400   -0.5530 h1        1 MOL      0.119110
    151 H69         6.5280    0.6750   -3.0670 hc        1 MOL      0.046968
    152 H70         8.2770    0.7300   -2.9170 hc        1 MOL      0.046968
    153 H71         8.0520    3.0300   -1.8170 hc        1 MOL      0.029854
    154 H72         6.3680    2.9670   -2.1120 hc        1 MOL      0.029854
    155 H73         6.9790    2.8080   -4.6680 hc        1 MOL      0.012480
    156 H74         8.6420    3.2500   -4.1150 hc        1 MOL      0.012480
    157 H75         8.1160    5.1240   -3.1240 hx        1 MOL      0.093512
    158 H76         6.3030    4.8330   -3.1870 hx        1 MOL      0.093512
    159 H77         8.1870    5.3160   -5.4890 hn        1 MOL      0.312536
    160 H78         6.4860    4.9600   -5.5270 hn        1 MOL      0.312536
    161 H79         7.1200    6.3840   -5.0520 hn        1 MOL      0.312536
    162 N14         5.1140    0.7120    0.1550 n         1 MOL      0.067559
    163 C49         4.1940    1.3160    1.2030 c3        1 MOL     -0.137478
    164 C50         4.6800    1.1440    2.6860 c         1 MOL      0.540222
    165 O22         4.4290    2.0630    3.4220 o         1 MOL     -0.582307
    166 C51         2.7440    0.8140    1.0030 c3        1 MOL     -0.031812
    167 C52         2.0380    1.0890   -0.3670 c3        1 MOL     -0.156024
    168 C53         0.6120    0.5710   -0.3750 c         1 MOL      0.820523
    169 O23        -0.3270    1.3920   -0.4950 o         1 MOL     -0.826200
    170 O24         0.3640   -0.6540   -0.5960 o         1 MOL     -0.826200
    171 H80         4.8150   -0.1130   -0.3260 hn        1 MOL     -0.090394
    172 H81         4.0240    2.3860    1.0820 h1        1 MOL      0.063537
    173 H82         2.1060    1.2150    1.7850 hc        1 MOL      0.106895
    174 H83         2.8270   -0.2640    1.1870 hc        1 MOL      0.106895
    175 H84         2.6420    0.7330   -1.2080 hc        1 MOL      0.007627
    176 H85         2.0530    2.1710   -0.3860 hc        1 MOL      0.007627
    177 N15         5.3530    0.0700    3.0090 n         1 MOL     -0.075609
    178 C54         6.0650   -0.0130    4.2510 c3        1 MOL     -0.459989
    179 H86         6.8340   -0.7810    4.1780 h1        1 MOL      0.148509
    180 H87         6.5320    0.9480    4.4680 h1        1 MOL      0.148509
    181 H88         5.3700   -0.2700    5.0520 h1        1 MOL      0.148509
    182 H89         5.4960   -0.7300    2.4280 hn        1 MOL      0.210798
    183 Ca1        -2.0490   -0.5510   -1.5340 Ca        1 MOL      1.801279
    184 O25        -0.7620   -0.1630   -4.1120 oh        1 MOL     -0.814309
    185 H90        -1.3120    0.3960   -4.6570 ho        1 MOL      0.383534
    186 H91         0.1300    0.0070   -4.4260 ho        1 MOL      0.383534
    187 O26        -1.5460   -2.8140   -2.7770 oh        1 MOL     -0.814309
    188 H92        -0.9550   -2.4970   -3.4500 ho        1 MOL      0.383534
    189 H93        -1.7110   -3.7280   -3.0080 ho        1 MOL      0.383534
@<TRIPOS>BOND
     1    1    2 1   
     2    1    4 1   
     3    1    5 1   
     4    1    6 1   
     5    2    3 2   
     6    2    7 1   
     7    7    8 1   
     8    7   15 1   
     9    8    9 1   
    10    8   11 1   
    11    8   16 1   
    12    9   10 2   
    13    9   19 1   
    14   11   12 1   
    15   11   17 1   
    16   11   18 1   
    17   12   13 1   
    18   12   14 1   
    19   19   20 1   
    20   19   28 1   
    21   20   21 1   
    22   20   23 1   
    23   20   29 1   
    24   21   22 2   
    25   21   41 1   
    26   23   24 1   
    27   23   30 1   
    28   23   31 1   
    29   24   25 1   
    30   24   32 1   
    31   24   33 1   
    32   25   26 1   
    33   25   34 1   
    34   25   35 1   
    35   26   27 1   
    36   26   36 1   
    37   26   37 1   
    38   27   38 1   
    39   27   39 1   
    40   27   40 1   
    41   41   42 1   
    42   41   49 1   
    43   42   43 1   
    44   42   45 1   
    45   42   50 1   
    46   43   44 2   
    47   43   53 1   
    48   45   46 1   
    49   45   51 1   
    50   45   52 1   
    51   46   47 1   
    52   46   48 1   
    53   53   54 1   
    54   53   57 1   
    55   54   55 1   
    56   54   58 1   
    57   54   59 1   
    58   55   56 2   
    59   55   60 1   
    60   60   61 1   
    61   60   68 1   
    62   61   62 1   
    63   61   64 1   
    64   61   69 1   
    65   62   63 2   
    66   62   72 1   
    67   64   65 1   
    68   64   70 1   
    69   64   71 1   
    70   65   66 1   
    71   65   67 1   
    72   72   73 1   
    73   72   76 1   
    74   73   74 1   
    75   73   77 1   
    76   73   78 1   
    77   74   75 2   
    78   74   79 1   
    79   79   80 1   
    80   79   86 1   
    81   80   81 1   
    82   80   83 1   
    83   80   87 1   
    84   81   82 2   
    85   81   93 1   
    86   83   84 1   
    87   83   85 1   
    88   83   88 1   
    89   84   90 1   
    90   84   91 1   
    91   84   92 1   
    92   85   89 1   
    93   93   94 1   
    94   93  101 1   
    95   94   95 1   
    96   94   97 1   
    97   94  102 1   
    98   95   96 2   
    99   95  112 1   
   100   97   98 1   
   101   97   99 1   
   102   97  103 1   
   103   98  100 1   
   104   98  104 1   
   105   98  105 1   
   106   99  106 1   
   107   99  107 1   
   108   99  108 1   
   109  100  109 1   
   110  100  110 1   
   111  100  111 1   
   112  112  113 1   
   113  112  119 1   
   114  113  114 1   
   115  113  116 1   
   116  113  120 1   
   117  114  115 2   
   118  114  126 1   
   119  116  117 1   
   120  116  118 1   
   121  116  121 1   
   122  117  123 1   
   123  117  124 1   
   124  117  125 1   
   125  118  122 1   
   126  126  127 1   
   127  126  133 1   
   128  127  128 1   
   129  127  130 1   
   130  127  134 1   
   131  128  129 2   
   132  128  140 1   
   133  130  131 1   
   134  130  132 1   
   135  130  135 1   
   136  131  137 1   
   137  131  138 1   
   138  131  139 1   
   139  132  136 1   
   140  140  141 1   
   141  140  149 1   
   142  141  142 1   
   143  141  144 1   
   144  141  150 1   
   145  142  143 2   
   146  142  162 1   
   147  144  145 1   
   148  144  151 1   
   149  144  152 1   
   150  145  146 1   
   151  145  153 1   
   152  145  154 1   
   153  146  147 1   
   154  146  155 1   
   155  146  156 1   
   156  147  148 1   
   157  147  157 1   
   158  147  158 1   
   159  148  159 1   
   160  148  160 1   
   161  148  161 1   
   162  162  163 1   
   163  162  171 1   
   164  163  164 1   
   165  163  166 1   
   166  163  172 1   
   167  164  165 2   
   168  164  177 1   
   169  166  167 1   
   170  166  173 1   
   171  166  174 1   
   172  167  168 1   
   173  167  175 1   
   174  167  176 1   
   175  168  169 1   
   176  168  170 1   
   177  177  178 1   
   178  177  182 1   
   179  178  179 1   
   180  178  180 1   
   181  178  181 1   
   182  184  185 1   
   183  184  186 1   
   184  187  188 1   
   185  187  189 1   
@<TRIPOS>SUBSTRUCTURE
     1 MOL         1 TEMP              0 ****  ****    0 ROOT
