@<TRIPOS>MOLECULE
MOL
  169   169     1     0     0
SMALL
resp


@<TRIPOS>ATOM
      1 C1         -0.3410    3.3430    5.8860 c3        1 MOL     -0.381489
      2 C2         -0.6660    3.1290    4.4600 c         1 MOL      0.807090
      3 O1          0.1440    3.4790    3.6200 o         1 MOL     -0.600394
      4 H1          0.5980    3.8910    5.9660 hc        1 MOL      0.083826
      5 H2         -1.1380    3.9170    6.3580 hc        1 MOL      0.083826
      6 H3         -0.2410    2.3790    6.3860 hc        1 MOL      0.083826
      7 N1         -1.8060    2.5720    4.1650 n         1 MOL     -0.640183
      8 C3         -2.2080    2.4350    2.7390 c3        1 MOL      0.119371
      9 C4         -2.5950    3.7860    2.1040 c         1 MOL      0.548503
     10 O2         -3.3730    4.5620    2.7200 o         1 MOL     -0.597882
     11 C5         -3.4350    1.5890    2.8190 c3        1 MOL     -0.204795
     12 C6         -4.0110    1.1640    1.5140 c         1 MOL      0.706768
     13 O3         -3.4120    1.5760    0.4640 o         1 MOL     -0.708490
     14 O4         -4.9740    0.3680    1.3130 o         1 MOL     -0.708490
     15 H4         -2.3740    2.1840    4.9020 hn        1 MOL      0.327829
     16 H5         -1.4600    1.9050    2.1500 h1        1 MOL      0.088944
     17 H6         -4.1530    2.1360    3.4370 hc        1 MOL      0.056063
     18 H7         -3.2600    0.6970    3.4180 hc        1 MOL      0.056063
     19 N2         -2.2020    4.1110    0.8910 n         1 MOL     -0.417488
     20 C7         -2.4690    5.3460    0.2760 c3        1 MOL      0.303213
     21 C8         -3.3210    5.2260   -1.0320 c         1 MOL      0.506012
     22 O5         -3.4220    6.2570   -1.7400 o         1 MOL     -0.550150
     23 C9         -1.2080    6.1260    0.0230 c3        1 MOL     -0.229654
     24 H8         -1.6930    3.4110    0.3770 hn        1 MOL      0.321942
     25 H9         -3.0020    5.9770    0.9950 h1        1 MOL     -0.005005
     26 H10        -0.5720    5.5320   -0.6430 hc        1 MOL      0.046629
     27 H11        -1.4820    7.0130   -0.5430 hc        1 MOL      0.046629
     28 H12        -0.6690    6.3580    0.9430 hc        1 MOL      0.046629
     29 N3         -3.8760    4.0150   -1.2730 n         1 MOL     -0.692990
     30 C10        -4.6860    3.6120   -2.4600 c3        1 MOL      0.453096
     31 C11        -5.9020    2.7510   -2.0650 c         1 MOL      0.364472
     32 O6         -6.6140    2.3020   -2.9770 o         1 MOL     -0.549758
     33 C12        -3.9340    2.9780   -3.6030 c3        1 MOL     -0.223004
     34 C13        -3.1910    1.7300   -3.1730 c         1 MOL      0.855470
     35 O7         -1.9670    1.5250   -3.3920 o         1 MOL     -0.780977
     36 O8         -3.8090    0.8280   -2.5970 o         1 MOL     -0.780977
     37 H13        -3.5920    3.2020   -0.7390 hn        1 MOL      0.280196
     38 H14        -5.1360    4.4960   -2.9030 h1        1 MOL     -0.016940
     39 H15        -3.2300    3.7060   -3.9930 hc        1 MOL      0.029535
     40 H16        -4.6840    2.7140   -4.3580 hc        1 MOL      0.029535
     41 N4         -6.0860    2.4370   -0.8080 n         1 MOL     -0.340708
     42 C14        -7.3310    1.8210   -0.3310 c3        1 MOL     -0.186267
     43 C15        -7.5510    0.3970   -0.7310 c         1 MOL      0.548023
     44 O9         -8.6310   -0.1370   -0.5160 o         1 MOL     -0.614258
     45 H17        -5.3830    2.5660   -0.1020 hn        1 MOL      0.278890
     46 H18        -8.1610    2.3930   -0.7520 h1        1 MOL      0.110703
     47 H19        -7.3780    1.9420    0.7510 h1        1 MOL      0.110703
     48 N5         -6.5210   -0.3250   -1.1550 n         1 MOL     -0.224137
     49 C16        -6.6070   -1.7150   -1.5230 c3        1 MOL     -0.084526
     50 C17        -6.5860   -2.7130   -0.3420 c         1 MOL      0.485229
     51 O10        -6.8200   -3.9210   -0.5170 o         1 MOL     -0.542304
     52 C18        -5.6940   -2.0720   -2.6950 c3        1 MOL     -0.156784
     53 C19        -4.1400   -2.1110   -2.4060 c         1 MOL      0.588450
     54 N6         -3.4010   -2.8630   -3.2140 n         1 MOL     -0.638058
     55 O11        -3.6760   -1.6660   -1.3270 o         1 MOL     -0.707390
     56 H20        -5.7400    0.2430   -1.4500 hn        1 MOL      0.327130
     57 H21        -7.5860   -1.9380   -1.9250 h1        1 MOL      0.106522
     58 H22        -5.8030   -1.4130   -3.5610 hc        1 MOL      0.064752
     59 H23        -5.9350   -3.1110   -2.9220 hc        1 MOL      0.064752
     60 H24        -3.9120   -3.3110   -3.9480 hn        1 MOL      0.331960
     61 H25        -2.4090   -2.9580   -3.0480 hn        1 MOL      0.331960
     62 N7         -6.3780   -2.2740    0.9000 n         1 MOL     -0.183074
     63 C20        -6.1770   -3.0800    2.0670 c3        1 MOL     -0.352174
     64 C21        -4.9560   -4.0620    1.8760 c         1 MOL      0.633624
     65 O12        -4.9380   -5.0600    2.5330 o         1 MOL     -0.580945
     66 H26        -6.1460   -1.2930    0.9780 hn        1 MOL      0.241278
     67 H27        -7.0150   -3.7760    2.1730 h1        1 MOL      0.140297
     68 H28        -5.9810   -2.4900    2.9660 h1        1 MOL      0.140297
     69 N8         -3.9840   -3.6660    1.0730 n         1 MOL     -0.417736
     70 C22        -2.7070   -4.3350    0.8020 c3        1 MOL      0.088860
     71 C23        -1.5220   -3.3340    0.9620 c         1 MOL      0.399634
     72 O13        -1.5720   -2.1200    0.5480 o         1 MOL     -0.570003
     73 C24        -2.6600   -4.9480   -0.5490 c3        1 MOL      0.495393
     74 C25        -1.4760   -5.8780   -0.6630 c3        1 MOL     -0.524043
     75 O14        -3.7780   -5.6550   -0.8350 oh        1 MOL     -0.594036
     76 H29        -4.1510   -2.8450    0.5130 hn        1 MOL      0.306403
     77 H30        -2.5610   -5.1370    1.5210 h1        1 MOL      0.046067
     78 H31        -2.7190   -4.1700   -1.3130 h1        1 MOL     -0.024547
     79 H32        -3.6300   -5.9450   -1.7400 ho        1 MOL      0.357638
     80 H33        -1.4650   -6.3560   -1.6400 hc        1 MOL      0.118808
     81 H34        -0.5620   -5.3000   -0.4950 hc        1 MOL      0.118808
     82 H35        -1.4800   -6.6920    0.0550 hc        1 MOL      0.118808
     83 N9         -0.4520   -3.7210    1.6120 n         1 MOL     -0.421503
     84 C26         0.8030   -2.9510    1.7150 c3        1 MOL     -0.082146
     85 C27         1.6310   -3.1790    0.4540 c         1 MOL      0.494342
     86 O15         2.0330   -4.2830    0.1330 o         1 MOL     -0.572239
     87 C28         1.6350   -3.3330    2.9220 c3        1 MOL      0.222360
     88 C29         0.8370   -3.1700    4.2170 c3        1 MOL      0.004393
     89 C30         2.9170   -2.5020    2.9580 c3        1 MOL     -0.025644
     90 C31         1.6890   -3.3600    5.4860 c3        1 MOL     -0.048284
     91 H36        -0.4720   -4.6300    2.0470 hn        1 MOL      0.282918
     92 H37         0.5350   -1.9080    1.8820 h1        1 MOL      0.148067
     93 H38         1.9770   -4.3470    2.7730 hc        1 MOL     -0.047065
     94 H39         0.0570   -3.9260    4.1970 hc        1 MOL      0.002617
     95 H40         0.4230   -2.1590    4.2410 hc        1 MOL      0.002617
     96 H41         2.6680   -1.4660    3.1920 hc        1 MOL     -0.013609
     97 H42         3.6810   -2.8570    3.6560 hc        1 MOL     -0.013609
     98 H43         3.3960   -2.6010    1.9840 hc        1 MOL     -0.013609
     99 H44         2.1100   -4.3630    5.3820 hc        1 MOL     -0.001898
    100 H45         2.4580   -2.6130    5.6770 hc        1 MOL     -0.001898
    101 H46         0.9990   -3.4050    6.3360 hc        1 MOL     -0.001898
    102 N10         1.8410   -2.0890   -0.2700 n         1 MOL     -0.192239
    103 C32         2.8100   -1.9780   -1.3920 c3        1 MOL      0.177951
    104 C33         4.1700   -1.4680   -0.9170 c         1 MOL      0.399592
    105 O16         4.2960   -0.9460    0.1640 o         1 MOL     -0.279203
    106 C34         2.3080   -1.1090   -2.5940 c3        1 MOL     -0.118354
    107 C35         0.8720   -1.4820   -3.0680 c         1 MOL      0.681622
    108 O17         0.7080   -2.5480   -3.6820 o         1 MOL     -0.693069
    109 O18        -0.0740   -0.7630   -2.6930 o         1 MOL     -0.693069
    110 H47         1.3730   -1.2330   -0.0110 hn        1 MOL      0.100469
    111 H48         2.9590   -2.9770   -1.8040 h1        1 MOL      0.023861
    112 H49         3.0090   -1.2810   -3.4090 hc        1 MOL      0.007787
    113 H50         2.3630   -0.0460   -2.3710 hc        1 MOL      0.007787
    114 N11         5.1630   -1.6200   -1.7950 n         1 MOL     -0.633736
    115 C36         6.5060   -1.1810   -1.5290 c3        1 MOL      0.304133
    116 C37         6.6330    0.2720   -1.0380 c         1 MOL      0.317399
    117 O19         7.2440    0.4620    0.0500 o         1 MOL     -0.492043
    118 C38         7.5340   -1.4970   -2.5670 c3        1 MOL     -0.184151
    119 C39         8.9870   -1.3710   -2.0860 ca        1 MOL      0.133173
    120 C40         9.4070   -2.1340   -0.9710 ca        1 MOL     -0.204697
    121 C41         9.9060   -0.4310   -2.6180 ca        1 MOL     -0.204697
    122 C42        10.6840   -2.0310   -0.4190 ca        1 MOL     -0.093064
    123 C43        11.2320   -0.3740   -2.1150 ca        1 MOL     -0.093064
    124 C44        11.6200   -1.1310   -1.0320 ca        1 MOL     -0.115542
    125 H51         5.0520   -1.9790   -2.7300 hn        1 MOL      0.333182
    126 H52         6.7230   -1.6820   -0.5870 h1        1 MOL      0.066410
    127 H53         7.4610   -0.7610   -3.3620 hc        1 MOL      0.058872
    128 H54         7.4630   -2.4870   -3.0300 hc        1 MOL      0.058872
    129 H55         8.7100   -2.7360   -0.4010 ha        1 MOL      0.123227
    130 H56         9.4340    0.2110   -3.3510 ha        1 MOL      0.123227
    131 H57        10.9710   -2.6170    0.4340 ha        1 MOL      0.108731
    132 H58        11.9690    0.3460   -2.4180 ha        1 MOL      0.108731
    133 H59        12.6220   -0.9960   -0.6510 ha        1 MOL      0.098663
    134 N12         6.1780    1.3950   -1.6840 n         1 MOL     -0.110353
    135 C45         6.2750    2.7000   -1.0560 c3        1 MOL      0.097522
    136 C46         5.5160    2.8770    0.3010 c         1 MOL      0.282160
    137 O20         5.6460    3.8650    0.9760 o         1 MOL     -0.492020
    138 C47         5.7070    3.7120   -2.0620 c3        1 MOL     -0.256382
    139 C48         4.7940    2.8560   -2.9290 c3        1 MOL      0.086796
    140 C49         5.4150    1.4360   -2.9530 c3        1 MOL     -0.058018
    141 H60         7.3330    2.9100   -0.9070 h1        1 MOL      0.053571
    142 H61         5.1950    4.5020   -1.5190 hc        1 MOL      0.087339
    143 H62         6.5480    4.0520   -2.6700 hc        1 MOL      0.087339
    144 H63         3.8130    2.7720   -2.4590 hc        1 MOL      0.017386
    145 H64         4.7260    3.2000   -3.9660 hc        1 MOL      0.017386
    146 H65         4.5530    0.7630   -2.9650 h1        1 MOL      0.031933
    147 H66         6.1330    1.3480   -3.7640 h1        1 MOL      0.031933
    148 N13         4.6180    1.9210    0.6440 n         1 MOL      0.000342
    149 C50         3.8030    2.0190    1.8700 c3        1 MOL     -0.135021
    150 C51         4.4980    1.2660    2.9980 c         1 MOL      0.441900
    151 O21         4.5200    1.7140    4.1550 o         1 MOL     -0.585351
    152 C52         2.4260    1.4180    1.6440 c3        1 MOL      0.033208
    153 C53         1.5800    2.2890    0.6610 c3        1 MOL      0.029110
    154 C54         0.3230    1.6330    0.2320 c         1 MOL      0.588036
    155 O22         0.1190    0.4220    0.5440 o         1 MOL     -0.742493
    156 O23        -0.5270    2.1570   -0.4540 o         1 MOL     -0.742493
    157 H67         4.3380    1.2490   -0.0590 hn        1 MOL      0.162082
    158 H68         3.6090    3.0690    2.0950 h1        1 MOL      0.106478
    159 H69         1.8850    1.3110    2.5830 hc        1 MOL      0.021900
    160 H70         2.5710    0.4160    1.2440 hc        1 MOL      0.021900
    161 H71         2.1840    2.5250   -0.2170 hc        1 MOL      0.009491
    162 H72         1.2550    3.2400    1.0700 hc        1 MOL      0.009491
    163 N14         5.2450    0.2440    2.7030 n         1 MOL      0.045722
    164 C55         6.2010   -0.4930    3.5720 c3        1 MOL     -0.284219
    165 H73         6.8210    0.2200    4.1160 h1        1 MOL      0.101276
    166 H74         5.6480   -1.1080    4.2820 h1        1 MOL      0.101276
    167 H75         6.8360   -1.1300    2.9560 h1        1 MOL      0.101276
    168 H76         5.3060   -0.0020    1.7240 hn        1 MOL     -0.040323
    169 Ca1        -1.8990    0.1010   -1.0640 Ca        1 MOL      1.758346
@<TRIPOS>BOND
     1    1    2 1   
     2    1    4 1   
     3    1    5 1   
     4    1    6 1   
     5    2    3 2   
     6    2    7 1   
     7    7    8 1   
     8    7   15 1   
     9    8    9 1   
    10    8   11 1   
    11    8   16 1   
    12    9   10 2   
    13    9   19 1   
    14   11   12 1   
    15   11   17 1   
    16   11   18 1   
    17   12   13 1   
    18   12   14 1   
    19   19   20 1   
    20   19   24 1   
    21   20   21 1   
    22   20   23 1   
    23   20   25 1   
    24   21   22 2   
    25   21   29 1   
    26   23   26 1   
    27   23   27 1   
    28   23   28 1   
    29   29   30 1   
    30   29   37 1   
    31   30   31 1   
    32   30   33 1   
    33   30   38 1   
    34   31   32 2   
    35   31   41 1   
    36   33   34 1   
    37   33   39 1   
    38   33   40 1   
    39   34   35 1   
    40   34   36 1   
    41   41   42 1   
    42   41   45 1   
    43   42   43 1   
    44   42   46 1   
    45   42   47 1   
    46   43   44 2   
    47   43   48 1   
    48   48   49 1   
    49   48   56 1   
    50   49   50 1   
    51   49   52 1   
    52   49   57 1   
    53   50   51 2   
    54   50   62 1   
    55   52   53 1   
    56   52   58 1   
    57   52   59 1   
    58   53   54 1   
    59   53   55 2   
    60   54   60 1   
    61   54   61 1   
    62   62   63 1   
    63   62   66 1   
    64   63   64 1   
    65   63   67 1   
    66   63   68 1   
    67   64   65 2   
    68   64   69 1   
    69   69   70 1   
    70   69   76 1   
    71   70   71 1   
    72   70   73 1   
    73   70   77 1   
    74   71   72 2   
    75   71   83 1   
    76   73   74 1   
    77   73   75 1   
    78   73   78 1   
    79   74   80 1   
    80   74   81 1   
    81   74   82 1   
    82   75   79 1   
    83   83   84 1   
    84   83   91 1   
    85   84   85 1   
    86   84   87 1   
    87   84   92 1   
    88   85   86 2   
    89   85  102 1   
    90   87   88 1   
    91   87   89 1   
    92   87   93 1   
    93   88   90 1   
    94   88   94 1   
    95   88   95 1   
    96   89   96 1   
    97   89   97 1   
    98   89   98 1   
    99   90   99 1   
   100   90  100 1   
   101   90  101 1   
   102  102  103 1   
   103  102  110 1   
   104  103  104 1   
   105  103  106 1   
   106  103  111 1   
   107  104  105 2   
   108  104  114 1   
   109  106  107 1   
   110  106  112 1   
   111  106  113 1   
   112  107  108 1   
   113  107  109 1   
   114  114  115 1   
   115  114  125 1   
   116  115  116 1   
   117  115  118 1   
   118  115  126 1   
   119  116  117 2   
   120  116  134 1   
   121  118  119 1   
   122  118  127 1   
   123  118  128 1   
   124  119  120 ar  
   125  119  121 ar  
   126  120  122 ar  
   127  120  129 1   
   128  121  123 ar  
   129  121  130 1   
   130  122  124 ar  
   131  122  131 1   
   132  123  124 ar  
   133  123  132 1   
   134  124  133 1   
   135  134  135 1   
   136  134  140 1   
   137  135  136 1   
   138  135  138 1   
   139  135  141 1   
   140  136  137 2   
   141  136  148 1   
   142  138  139 1   
   143  138  142 1   
   144  138  143 1   
   145  139  140 1   
   146  139  144 1   
   147  139  145 1   
   148  140  146 1   
   149  140  147 1   
   150  148  149 1   
   151  148  157 1   
   152  149  150 1   
   153  149  152 1   
   154  149  158 1   
   155  150  151 2   
   156  150  163 1   
   157  152  153 1   
   158  152  159 1   
   159  152  160 1   
   160  153  154 1   
   161  153  161 1   
   162  153  162 1   
   163  154  155 1   
   164  154  156 1   
   165  163  164 1   
   166  163  168 1   
   167  164  165 1   
   168  164  166 1   
   169  164  167 1   
@<TRIPOS>SUBSTRUCTURE
     1 MOL         1 TEMP              0 ****  ****    0 ROOT
