@<TRIPOS>MOLECULE
MOL
  172   171     1     0     0
SMALL
resp


@<TRIPOS>ATOM
      1 C1         -0.0510   -2.4690    6.0480 c3        1 MOL     -0.359910
      2 C2          0.2180   -2.4040    4.5150 c         1 MOL      0.734396
      3 O1         -0.6230   -2.8590    3.6800 o         1 MOL     -0.600816
      4 H1          0.5500   -1.7120    6.5540 hc        1 MOL      0.089592
      5 H2         -1.1070   -2.2810    6.2410 hc        1 MOL      0.089592
      6 H3          0.2180   -3.4560    6.4240 hc        1 MOL      0.089592
      7 N1          1.4140   -1.9020    4.1360 n         1 MOL     -0.625842
      8 C3          1.8940   -1.6810    2.7270 c3        1 MOL      0.371383
      9 C4          2.5230   -3.0060    2.2230 c         1 MOL      0.458670
     10 O2          3.5680   -3.4340    2.7440 o         1 MOL     -0.602135
     11 C5          2.8100   -0.4440    2.5290 c3        1 MOL     -0.599480
     12 C6          3.4890   -0.4060    1.0880 c         1 MOL      0.765852
     13 O3          4.3960    0.4710    0.8560 o         1 MOL     -0.742722
     14 O4          3.1460   -1.1690    0.1880 o         1 MOL     -0.742722
     15 H4          2.0990   -1.6920    4.8450 hn        1 MOL      0.309425
     16 H5          1.0080   -1.4490    2.1380 h1        1 MOL     -0.023504
     17 H6          3.5430   -0.5630    3.3290 hc        1 MOL      0.154801
     18 H7          2.1820    0.4290    2.6860 hc        1 MOL      0.154801
     19 N2          1.9140   -3.8230    1.3870 n         1 MOL     -0.347627
     20 C7          2.4000   -5.1420    0.9590 c3        1 MOL      0.274041
     21 C8          3.4010   -4.9810   -0.2710 c         1 MOL      0.198576
     22 O5          4.2000   -5.8870   -0.5130 o         1 MOL     -0.559456
     23 C9          1.2550   -6.1080    0.7250 c3        1 MOL     -0.417078
     24 H8          1.1720   -3.5130    0.7750 hn        1 MOL      0.187718
     25 H9          2.8800   -5.6300    1.8050 h1        1 MOL      0.064486
     26 H10         0.3910   -5.7110    0.1910 hc        1 MOL      0.110872
     27 H11         1.5230   -6.8620   -0.0150 hc        1 MOL      0.110872
     28 H12         1.0640   -6.7000    1.6190 hc        1 MOL      0.110872
     29 N3          3.5420   -3.8180   -0.9330 n         1 MOL      0.266354
     30 C10         4.6730   -3.4900   -1.8250 c3        1 MOL     -0.312194
     31 C11         6.0620   -3.1290   -1.2080 c         1 MOL      0.591341
     32 O6          6.9930   -3.1180   -2.0060 o         1 MOL     -0.569864
     33 C12         4.3570   -2.3780   -2.8020 c3        1 MOL     -0.140720
     34 C13         3.0430   -2.4890   -3.4670 c         1 MOL      0.604269
     35 O7          2.5960   -3.5650   -3.8970 o         1 MOL     -0.682723
     36 O8          2.3020   -1.4840   -3.3990 o         1 MOL     -0.682723
     37 H13         2.8680   -3.0980   -0.7120 hn        1 MOL      0.069406
     38 H14         4.9460   -4.3370   -2.4430 h1        1 MOL      0.123444
     39 H15         5.1470   -2.1830   -3.5280 hc        1 MOL      0.059546
     40 H16         4.3680   -1.5560   -2.0780 hc        1 MOL      0.059546
     41 N4          6.1380   -2.8410    0.0720 n         1 MOL     -0.415806
     42 C14         7.2660   -2.1160    0.7810 c3        1 MOL     -0.054593
     43 C15         7.5820   -0.7890    0.1480 c         1 MOL      0.323851
     44 O9          8.7200   -0.3210    0.3330 o         1 MOL     -0.567207
     45 H17         5.2430   -2.8710    0.5460 hn        1 MOL      0.252928
     46 H18         8.1980   -2.6880    0.7190 h1        1 MOL      0.095870
     47 H19         7.0290   -2.1870    1.8450 h1        1 MOL      0.095870
     48 N5          6.7220   -0.2380   -0.6760 n         1 MOL     -0.043672
     49 C16         7.1260    0.8200   -1.5450 c3        1 MOL     -0.118201
     50 C17         7.1640    2.1870   -0.8110 c         1 MOL      0.401547
     51 O10         7.7440    3.1460   -1.3250 o         1 MOL     -0.539693
     52 C18         6.3770    0.9210   -2.8340 c3        1 MOL     -0.444916
     53 C19         4.9850    1.4700   -2.6900 c         1 MOL      0.726695
     54 N6          4.7210    2.7250   -2.9110 n         1 MOL     -0.751494
     55 O11         4.1090    0.7260   -2.2350 o         1 MOL     -0.665262
     56 H20         5.7720   -0.5490   -0.5820 hn        1 MOL      0.388190
     57 H21         8.1750    0.6570   -1.7960 h1        1 MOL      0.150801
     58 H22         6.4000   -0.0330   -3.3550 hc        1 MOL      0.149273
     59 H23         6.9530    1.6140   -3.4320 hc        1 MOL      0.149273
     60 H24         5.4740    3.3220   -3.1990 hn        1 MOL      0.342909
     61 H25         3.8740    3.0980   -2.5050 hn        1 MOL      0.342909
     62 N7          6.6680    2.2080    0.4710 n         1 MOL     -0.132713
     63 C20         6.5540    3.3810    1.2910 c3        1 MOL     -0.191730
     64 C21         5.2280    4.1270    1.4340 c         1 MOL      0.627254
     65 O12         5.1640    5.0710    2.2190 o         1 MOL     -0.595833
     66 H26         6.1630    1.3660    0.7120 hn        1 MOL      0.184430
     67 H27         7.2660    4.1170    0.9360 h1        1 MOL      0.089155
     68 H28         6.8370    2.9870    2.2710 h1        1 MOL      0.089155
     69 N8          4.1950    3.6920    0.7060 n         1 MOL     -0.239987
     70 C22         2.8440    4.1960    0.8050 c3        1 MOL     -0.078171
     71 C23         1.7110    3.0960    0.8950 c         1 MOL      0.462297
     72 O13         1.8150    2.0030    0.2900 o         1 MOL     -0.395999
     73 C24         2.5520    5.1470   -0.3600 c3        1 MOL      0.139386
     74 C25         3.3360    6.5280   -0.1510 c3        1 MOL     -0.397828
     75 O14         2.8010    4.5440   -1.5900 oh        1 MOL     -0.443095
     76 H29         4.2310    2.9690    0.0030 hn        1 MOL      0.182808
     77 H30         2.7510    4.8410    1.6680 h1        1 MOL      0.100265
     78 H31         1.4840    5.3230   -0.4350 h1        1 MOL      0.045012
     79 H32         2.5770    5.2300   -2.2160 ho        1 MOL      0.370727
     80 H33         3.1890    6.8650    0.8700 hc        1 MOL      0.112291
     81 H34         4.3830    6.3140   -0.3390 hc        1 MOL      0.112291
     82 H35         3.0440    7.3330   -0.8180 hc        1 MOL      0.112291
     83 N9          0.5910    3.4590    1.5180 n         1 MOL     -0.466863
     84 C26        -0.5670    2.5610    1.7130 c3        1 MOL     -0.057757
     85 C27        -1.5950    2.8280    0.6190 c         1 MOL      0.609545
     86 O15        -2.1310    3.8710    0.4420 o         1 MOL     -0.592209
     87 C28        -1.2900    2.7430    3.1000 c3        1 MOL      0.029409
     88 C29        -0.4300    3.2560    4.2630 c3        1 MOL      0.147840
     89 C30        -1.9370    1.4220    3.6740 c3        1 MOL     -0.248079
     90 C31        -1.2220    3.6420    5.4750 c3        1 MOL     -0.303464
     91 H36         0.4430    4.4390    1.7040 hn        1 MOL      0.295656
     92 H37        -0.2590    1.5170    1.6850 h1        1 MOL      0.194434
     93 H38        -2.1230    3.4120    2.8910 hc        1 MOL      0.025040
     94 H39         0.2350    4.0740    3.9620 hc        1 MOL     -0.023656
     95 H40         0.3090    2.4930    4.5170 hc        1 MOL     -0.023656
     96 H41        -1.2350    0.6430    3.9480 hc        1 MOL      0.067765
     97 H42        -2.6770    1.7230    4.4070 hc        1 MOL      0.067765
     98 H43        -2.3880    0.9470    2.8050 hc        1 MOL      0.067765
     99 H44        -0.6570    4.2950    6.1430 hc        1 MOL      0.068203
    100 H45        -2.1470    4.1140    5.1470 hc        1 MOL      0.068203
    101 H46        -1.4610    2.7550    6.0540 hc        1 MOL      0.068203
    102 N10        -1.8690    1.8230   -0.2570 n         1 MOL     -0.196652
    103 C32        -2.9540    1.8920   -1.2310 c3        1 MOL     -0.000599
    104 C33        -4.3240    1.6520   -0.6300 c         1 MOL      0.599193
    105 O16        -4.4340    1.3060    0.5130 o         1 MOL     -0.454942
    106 C34        -2.6540    0.8500   -2.3340 c3        1 MOL     -0.381711
    107 C35        -1.2650    1.0340   -3.0140 c         1 MOL      0.842046
    108 O17        -0.4190    0.1440   -2.9360 o         1 MOL     -0.738435
    109 O18        -1.0600    2.0930   -3.6910 o         1 MOL     -0.738435
    110 H47        -1.3330    0.9730   -0.1410 hn        1 MOL     -0.120436
    111 H48        -3.0530    2.8600   -1.7110 h1        1 MOL      0.066220
    112 H49        -3.4280    1.0010   -3.0860 hc        1 MOL      0.136157
    113 H50        -2.5990   -0.1460   -1.8970 hc        1 MOL      0.136157
    114 N11        -5.4260    1.7970   -1.3520 n         1 MOL     -0.712674
    115 C36        -6.7530    1.4600   -0.8120 c3        1 MOL      0.472061
    116 C37        -6.9990   -0.0900   -0.6250 c         1 MOL      0.282284
    117 O19        -7.6600   -0.3980    0.3580 o         1 MOL     -0.432675
    118 C38        -7.8430    2.2740   -1.6340 c3        1 MOL     -0.336871
    119 C39        -9.2630    1.8420   -1.3160 ca        1 MOL      0.206777
    120 C40        -9.8910    1.0170   -2.2750 ca        1 MOL     -0.277462
    121 C41        -9.8980    2.1100   -0.1040 ca        1 MOL     -0.277462
    122 C42       -11.1620    0.4310   -1.9600 ca        1 MOL     -0.011499
    123 C43       -11.1780    1.5690    0.1750 ca        1 MOL     -0.011499
    124 C44       -11.8310    0.7440   -0.7730 ca        1 MOL     -0.222409
    125 H51        -5.3040    2.1740   -2.2830 hn        1 MOL      0.327660
    126 H52        -6.7570    1.9240    0.1680 h1        1 MOL      0.041085
    127 H53        -7.7000    2.3280   -2.7180 hc        1 MOL      0.094550
    128 H54        -7.7510    3.3000   -1.2990 hc        1 MOL      0.094550
    129 H55        -9.4310    0.7940   -3.2230 ha        1 MOL      0.140236
    130 H56        -9.3940    2.7880    0.5670 ha        1 MOL      0.140236
    131 H57       -11.6190   -0.2670   -2.6500 ha        1 MOL      0.093033
    132 H58       -11.6840    1.7510    1.1060 ha        1 MOL      0.093033
    133 H59       -12.7640    0.2460   -0.5820 ha        1 MOL      0.129163
    134 N12        -6.5680   -0.9580   -1.5910 n         1 MOL     -0.057918
    135 C45        -6.6070   -2.4070   -1.3910 c3        1 MOL      0.012918
    136 C46        -5.6500   -2.8850   -0.2220 c         1 MOL      0.285329
    137 O20        -5.9780   -3.9050    0.3620 o         1 MOL     -0.482929
    138 C47        -6.1960   -3.0320   -2.7260 c3        1 MOL     -0.070605
    139 C48        -6.5480   -1.9970   -3.7980 c3        1 MOL     -0.092466
    140 C49        -6.2870   -0.7270   -2.9750 c3        1 MOL      0.120432
    141 H60        -7.6260   -2.7020   -1.1110 h1        1 MOL      0.065620
    142 H61        -5.1130   -3.0770   -2.8320 hc        1 MOL      0.068679
    143 H62        -6.6380   -4.0020   -2.9740 hc        1 MOL      0.068679
    144 H63        -5.8940   -2.0200   -4.6740 hc        1 MOL      0.033832
    145 H64        -7.6020   -2.0910   -4.0740 hc        1 MOL      0.033832
    146 H65        -5.2580   -0.4040   -3.1300 h1        1 MOL     -0.019689
    147 H66        -6.8310    0.1160   -3.4090 h1        1 MOL     -0.019689
    148 N13        -4.5880   -2.1400    0.1260 n         1 MOL     -0.143895
    149 C50        -3.8460   -2.2950    1.3820 c3        1 MOL     -0.064944
    150 C51        -4.4720   -1.7160    2.6890 c         1 MOL      0.453906
    151 O21        -4.2150   -2.1680    3.8120 o         1 MOL     -0.549373
    152 C52        -2.4950   -1.5740    1.2100 c3        1 MOL      0.036541
    153 C53        -1.5970   -2.3920    0.2770 c3        1 MOL     -0.101260
    154 C54        -0.2680   -1.6870   -0.0930 c         1 MOL      0.609014
    155 O22         0.5470   -2.2710   -0.8430 o         1 MOL     -0.618644
    156 O23        -0.1360   -0.4580    0.0510 o         1 MOL     -0.618644
    157 H67        -4.3500   -1.3220   -0.4220 hn        1 MOL      0.101805
    158 H68        -3.7140   -3.3640    1.5600 h1        1 MOL      0.107101
    159 H69        -1.9770   -1.4350    2.1620 hc        1 MOL      0.067744
    160 H70        -2.6680   -0.5750    0.8060 hc        1 MOL      0.067744
    161 H71        -1.9940   -2.6140   -0.7190 hc        1 MOL      0.038034
    162 H72        -1.3390   -3.3740    0.6620 hc        1 MOL      0.038034
    163 N14        -5.3650   -0.7250    2.4630 n         1 MOL     -0.052448
    164 C55        -6.1560   -0.0990    3.5190 c3        1 MOL     -0.230723
    165 H73        -5.5100    0.5280    4.1320 h1        1 MOL      0.087062
    166 H74        -6.9390    0.5140    3.0730 h1        1 MOL      0.087062
    167 H75        -6.6090   -0.8720    4.1400 h1        1 MOL      0.087062
    168 H76        -5.3770   -0.3880    1.5110 hn        1 MOL      0.024619
    169 Ca1         1.7960    0.0360   -1.5820 Ca        1 MOL      1.747800
    170 O24         1.3440    2.5100   -2.6660 oh        1 MOL     -0.908678
    171 H77         0.5320    2.1760   -3.0650 ho        1 MOL      0.401515
    172 H78         1.2140    3.4540   -2.6270 ho        1 MOL      0.401515
@<TRIPOS>BOND
     1    1    2 1   
     2    1    4 1   
     3    1    5 1   
     4    1    6 1   
     5    2    3 2   
     6    2    7 1   
     7    7    8 1   
     8    7   15 1   
     9    8    9 1   
    10    8   11 1   
    11    8   16 1   
    12    9   10 2   
    13    9   19 1   
    14   11   12 1   
    15   11   17 1   
    16   11   18 1   
    17   12   13 1   
    18   12   14 1   
    19   19   20 1   
    20   19   24 1   
    21   20   21 1   
    22   20   23 1   
    23   20   25 1   
    24   21   22 2   
    25   21   29 1   
    26   23   26 1   
    27   23   27 1   
    28   23   28 1   
    29   29   30 1   
    30   29   37 1   
    31   30   31 1   
    32   30   33 1   
    33   30   38 1   
    34   31   32 2   
    35   31   41 1   
    36   33   34 1   
    37   33   39 1   
    38   33   40 1   
    39   34   35 1   
    40   34   36 1   
    41   41   42 1   
    42   41   45 1   
    43   42   43 1   
    44   42   46 1   
    45   42   47 1   
    46   43   44 2   
    47   43   48 1   
    48   48   49 1   
    49   48   56 1   
    50   49   50 1   
    51   49   52 1   
    52   49   57 1   
    53   50   51 2   
    54   50   62 1   
    55   52   53 1   
    56   52   58 1   
    57   52   59 1   
    58   53   54 1   
    59   53   55 2   
    60   54   60 1   
    61   54   61 1   
    62   62   63 1   
    63   62   66 1   
    64   63   64 1   
    65   63   67 1   
    66   63   68 1   
    67   64   65 2   
    68   64   69 1   
    69   69   70 1   
    70   69   76 1   
    71   70   71 1   
    72   70   73 1   
    73   70   77 1   
    74   71   72 2   
    75   71   83 1   
    76   73   74 1   
    77   73   75 1   
    78   73   78 1   
    79   74   80 1   
    80   74   81 1   
    81   74   82 1   
    82   75   79 1   
    83   83   84 1   
    84   83   91 1   
    85   84   85 1   
    86   84   87 1   
    87   84   92 1   
    88   85   86 2   
    89   85  102 1   
    90   87   88 1   
    91   87   89 1   
    92   87   93 1   
    93   88   90 1   
    94   88   94 1   
    95   88   95 1   
    96   89   96 1   
    97   89   97 1   
    98   89   98 1   
    99   90   99 1   
   100   90  100 1   
   101   90  101 1   
   102  102  103 1   
   103  102  110 1   
   104  103  104 1   
   105  103  106 1   
   106  103  111 1   
   107  104  105 2   
   108  104  114 1   
   109  106  107 1   
   110  106  112 1   
   111  106  113 1   
   112  107  108 1   
   113  107  109 1   
   114  114  115 1   
   115  114  125 1   
   116  115  116 1   
   117  115  118 1   
   118  115  126 1   
   119  116  117 2   
   120  116  134 1   
   121  118  119 1   
   122  118  127 1   
   123  118  128 1   
   124  119  120 ar  
   125  119  121 ar  
   126  120  122 ar  
   127  120  129 1   
   128  121  123 ar  
   129  121  130 1   
   130  122  124 ar  
   131  122  131 1   
   132  123  124 ar  
   133  123  132 1   
   134  124  133 1   
   135  134  135 1   
   136  134  140 1   
   137  135  136 1   
   138  135  138 1   
   139  135  141 1   
   140  136  137 2   
   141  136  148 1   
   142  138  139 1   
   143  138  142 1   
   144  138  143 1   
   145  139  140 1   
   146  139  144 1   
   147  139  145 1   
   148  140  146 1   
   149  140  147 1   
   150  148  149 1   
   151  148  157 1   
   152  149  150 1   
   153  149  152 1   
   154  149  158 1   
   155  150  151 2   
   156  150  163 1   
   157  152  153 1   
   158  152  159 1   
   159  152  160 1   
   160  153  154 1   
   161  153  161 1   
   162  153  162 1   
   163  154  155 1   
   164  154  156 1   
   165  163  164 1   
   166  163  168 1   
   167  164  165 1   
   168  164  166 1   
   169  164  167 1   
   170  170  171 1   
   171  170  172 1   
@<TRIPOS>SUBSTRUCTURE
     1 MOL         1 TEMP              0 ****  ****    0 ROOT
