@<TRIPOS>MOLECULE
MOL
  172   171     1     0     0
SMALL
resp


@<TRIPOS>ATOM
      1 C1          0.1270    3.7850    6.0510 c3        1 MOL     -0.391026
      2 C2         -0.1030    3.5560    4.5050 c         1 MOL      0.766629
      3 O1          0.7540    3.6920    3.6970 o         1 MOL     -0.568118
      4 H1          1.1020    4.2440    6.2090 hc        1 MOL      0.091437
      5 H2         -0.6510    4.4420    6.4420 hc        1 MOL      0.091437
      6 H3          0.0890    2.8270    6.5710 hc        1 MOL      0.091437
      7 N1         -1.3340    3.3960    4.1060 n         1 MOL     -0.673790
      8 C3         -1.7570    3.2200    2.7030 c3        1 MOL      0.254705
      9 C4         -1.6690    4.5800    1.9290 c         1 MOL      0.579195
     10 O2         -1.8370    5.6910    2.5050 o         1 MOL     -0.573745
     11 C5         -3.2970    2.7840    2.7310 c3        1 MOL     -0.398842
     12 C6         -3.9400    2.7740    1.3660 c         1 MOL      0.762300
     13 O3         -4.9120    3.5690    1.0830 o         1 MOL     -0.667272
     14 O4         -3.4340    2.0100    0.5580 o         1 MOL     -0.667272
     15 H4         -2.0680    3.5650    4.7760 hn        1 MOL      0.320880
     16 H5         -1.2380    2.3860    2.2300 h1        1 MOL      0.070645
     17 H6         -3.8000    3.4460    3.4360 hc        1 MOL      0.076977
     18 H7         -3.2830    1.7550    3.0830 hc        1 MOL      0.076977
     19 N2         -1.5020    4.5240    0.6000 n         1 MOL     -0.531048
     20 C7         -1.5980    5.6630   -0.3600 c3        1 MOL      0.386904
     21 C8         -2.5690    5.4010   -1.5600 c         1 MOL      0.355429
     22 O5         -2.6900    6.2830   -2.4340 o         1 MOL     -0.545810
     23 C9         -0.1760    6.0530   -0.9100 c3        1 MOL     -0.338761
     24 H8         -1.2130    3.6660    0.1390 hn        1 MOL      0.327262
     25 H9         -1.9410    6.5480    0.1770 h1        1 MOL      0.001105
     26 H10        -0.3940    6.8380   -1.6250 hc        1 MOL      0.075762
     27 H11         0.5480    6.3010   -0.1370 hc        1 MOL      0.075762
     28 H12         0.1430    5.1350   -1.4050 hc        1 MOL      0.075762
     29 N3         -3.2860    4.2310   -1.5810 n         1 MOL     -0.159900
     30 C10        -4.1110    3.7640   -2.7450 c3        1 MOL     -0.027491
     31 C11        -5.4930    3.0510   -2.4570 c         1 MOL      0.370176
     32 O6         -6.3120    3.0250   -3.3750 o         1 MOL     -0.563390
     33 C12        -3.3160    2.8030   -3.7480 c3        1 MOL     -0.041184
     34 C13        -2.9390    1.5260   -3.0720 c         1 MOL      0.677681
     35 O7         -1.8080    1.0930   -3.1600 o         1 MOL     -0.699295
     36 O8         -3.7690    0.8970   -2.4000 o         1 MOL     -0.699295
     37 H13        -3.1900    3.5910   -0.8050 hn        1 MOL      0.038009
     38 H14        -4.3480    4.6840   -3.2630 h1        1 MOL      0.088499
     39 H15        -2.4690    3.2830   -4.2320 hc        1 MOL      0.023599
     40 H16        -3.8780    2.6770   -4.6710 hc        1 MOL      0.023599
     41 N4         -5.7560    2.5820   -1.2450 n         1 MOL     -0.051598
     42 C14        -6.9500    1.8720   -0.8140 c3        1 MOL     -0.208203
     43 C15        -7.1620    0.4110   -1.1870 c         1 MOL      0.549650
     44 O9         -8.2540   -0.0500   -1.1490 o         1 MOL     -0.622708
     45 H17        -5.1140    2.6340   -0.4650 hn        1 MOL      0.126956
     46 H18        -7.7880    2.4180   -1.2350 h1        1 MOL      0.093815
     47 H19        -7.0810    1.9690    0.2580 h1        1 MOL      0.093815
     48 N5         -6.1380   -0.3200   -1.5730 n         1 MOL     -0.128073
     49 C16        -6.1900   -1.7010   -2.0780 c3        1 MOL      0.041146
     50 C17        -6.3880   -2.8680   -1.1140 c         1 MOL      0.432243
     51 O10        -6.3230   -4.0360   -1.5080 o         1 MOL     -0.527518
     52 C18        -5.1710   -1.9400   -3.2370 c3        1 MOL     -0.213431
     53 C19        -3.8090   -2.3210   -2.6390 c         1 MOL      0.676607
     54 N6         -2.7650   -2.6150   -3.3140 n         1 MOL     -0.557152
     55 O11        -3.6210   -2.2220   -1.4170 o         1 MOL     -0.715733
     56 H20        -5.2210    0.0890   -1.6520 hn        1 MOL      0.108602
     57 H21        -7.1290   -1.6700   -2.6280 h1        1 MOL      0.087633
     58 H22        -5.0770   -1.0120   -3.7980 hc        1 MOL      0.069506
     59 H23        -5.4180   -2.8360   -3.8200 hc        1 MOL      0.069506
     60 H24        -2.8790   -2.8420   -4.2970 hn        1 MOL      0.300978
     61 H25        -1.8520   -2.6320   -2.8970 hn        1 MOL      0.300978
     62 N7         -6.5230   -2.5960    0.1530 n         1 MOL     -0.340449
     63 C20        -6.6610   -3.6060    1.2200 c3        1 MOL     -0.048896
     64 C21        -5.3580   -4.1740    1.8260 c         1 MOL      0.261083
     65 O12        -5.3660   -5.0080    2.7300 o         1 MOL     -0.496969
     66 H26        -6.5170   -1.6110    0.3940 hn        1 MOL      0.235472
     67 H27        -7.1340   -4.4290    0.6900 h1        1 MOL      0.110669
     68 H28        -7.4630   -3.4670    1.9560 h1        1 MOL      0.110669
     69 N8         -4.2200   -3.6570    1.3470 n         1 MOL     -0.063551
     70 C22        -2.9730   -4.3990    1.5740 c3        1 MOL     -0.239535
     71 C23        -1.7890   -3.4390    1.5160 c         1 MOL      0.501289
     72 O13        -1.8270   -2.4070    0.8110 o         1 MOL     -0.595015
     73 C24        -2.6100   -5.4960    0.5600 c3        1 MOL      0.630339
     74 C25        -3.7600   -6.5600    0.5180 c3        1 MOL     -0.405955
     75 O14        -2.5890   -5.0630   -0.7130 oh        1 MOL     -0.681465
     76 H29        -4.2130   -2.9670    0.6000 hn        1 MOL      0.164981
     77 H30        -3.0190   -4.8750    2.5570 h1        1 MOL      0.087276
     78 H31        -1.6890   -5.9720    0.9130 h1        1 MOL     -0.054671
     79 H32        -3.0140   -4.2220   -0.8480 ho        1 MOL      0.432518
     80 H33        -4.6770   -6.1210    0.1210 hc        1 MOL      0.088474
     81 H34        -3.4560   -7.3820   -0.1330 hc        1 MOL      0.088474
     82 H35        -3.8660   -6.9430    1.5330 hc        1 MOL      0.088474
     83 N9         -0.6940   -3.8140    2.1670 n         1 MOL     -0.408473
     84 C26         0.5050   -2.9240    2.2010 c3        1 MOL     -0.006239
     85 C27         1.3760   -3.1950    0.9700 c         1 MOL      0.637845
     86 O15         1.8810   -4.3030    0.8630 o         1 MOL     -0.596439
     87 C28         1.1650   -3.0920    3.5310 c3        1 MOL     -0.030031
     88 C29         0.4620   -2.1610    4.6640 c3        1 MOL     -0.020933
     89 C30         2.6010   -2.5630    3.5590 c3        1 MOL     -0.100867
     90 C31         1.0700   -1.9660    6.0330 c3        1 MOL     -0.149561
     91 H36        -0.6990   -4.7190    2.6150 hn        1 MOL      0.269107
     92 H37         0.1170   -1.9080    2.1040 h1        1 MOL      0.111165
     93 H38         1.0900   -4.1400    3.8290 hc        1 MOL      0.033603
     94 H39        -0.5830   -2.4660    4.7110 hc        1 MOL      0.011220
     95 H40         0.4980   -1.1930    4.1670 hc        1 MOL      0.011220
     96 H41         3.1050   -2.6870    4.5190 hc        1 MOL      0.022566
     97 H42         3.1980   -3.0990    2.8270 hc        1 MOL      0.022566
     98 H43         2.5780   -1.5070    3.2590 hc        1 MOL      0.022566
     99 H44         1.3170   -2.9230    6.4980 hc        1 MOL      0.040443
    100 H45         2.0590   -1.5050    5.9800 hc        1 MOL      0.040443
    101 H46         0.4350   -1.3590    6.6730 hc        1 MOL      0.040443
    102 N10         1.5010   -2.2510    0.0820 n         1 MOL     -0.396018
    103 C32         2.4650   -2.3010   -1.0050 c3        1 MOL     -0.019736
    104 C33         3.9140   -1.8130   -0.6310 c         1 MOL      0.404022
    105 O16         4.1670   -1.1270    0.3860 o         1 MOL     -0.355997
    106 C34         1.9530   -1.5660   -2.2700 c3        1 MOL     -0.272532
    107 C35         0.4620   -1.7630   -2.5940 c         1 MOL      0.766973
    108 O17        -0.4550   -1.2050   -1.9340 o         1 MOL     -0.675450
    109 O18         0.2610   -2.3290   -3.6460 o         1 MOL     -0.675450
    110 H47         1.1330   -1.3350    0.2990 hn        1 MOL      0.297428
    111 H48         2.5300   -3.3620   -1.2500 h1        1 MOL      0.089829
    112 H49         2.5690   -1.7260   -3.1610 hc        1 MOL      0.078809
    113 H50         2.1130   -0.4870   -2.1940 hc        1 MOL      0.078809
    114 N11         4.8570   -2.0150   -1.5700 n         1 MOL     -0.498477
    115 C36         6.2050   -1.6690   -1.3270 c3        1 MOL      0.305796
    116 C37         6.5950   -0.2490   -0.8720 c         1 MOL      0.393056
    117 O19         7.2070   -0.1680    0.1720 o         1 MOL     -0.487594
    118 C38         7.0100   -2.2290   -2.5370 c3        1 MOL     -0.240797
    119 C39         8.5050   -1.8770   -2.4910 ca        1 MOL      0.106253
    120 C40         9.4710   -2.3940   -1.5990 ca        1 MOL     -0.144981
    121 C41         9.0130   -0.9590   -3.4220 ca        1 MOL     -0.144981
    122 C42        10.8000   -1.9400   -1.5260 ca        1 MOL     -0.154612
    123 C43        10.3310   -0.5570   -3.4350 ca        1 MOL     -0.154612
    124 C44        11.1970   -1.0130   -2.4540 ca        1 MOL     -0.054859
    125 H51         4.6600   -2.5720   -2.3880 hn        1 MOL      0.292105
    126 H52         6.4660   -2.2510   -0.4380 h1        1 MOL      0.024833
    127 H53         6.6480   -1.8840   -3.5080 hc        1 MOL      0.071079
    128 H54         6.9870   -3.3180   -2.5040 hc        1 MOL      0.071079
    129 H55         9.0990   -3.0570   -0.8240 ha        1 MOL      0.104017
    130 H56         8.3750   -0.6560   -4.2380 ha        1 MOL      0.104017
    131 H57        11.4270   -2.2820   -0.7180 ha        1 MOL      0.123317
    132 H58        10.6580    0.2770   -4.0460 ha        1 MOL      0.123317
    133 H59        12.1790   -0.5730   -2.3790 ha        1 MOL      0.081982
    134 N12         6.1440    0.8000   -1.6380 n         1 MOL     -0.167690
    135 C45         6.3090    2.1340   -1.1490 c3        1 MOL      0.176361
    136 C46         5.7340    2.3240    0.2830 c         1 MOL      0.174201
    137 O20         6.3330    3.0680    1.0230 o         1 MOL     -0.500897
    138 C47         5.5910    3.0970   -2.0790 c3        1 MOL      0.026467
    139 C48         5.2240    2.2410   -3.3470 c3        1 MOL     -0.087724
    140 C49         5.6180    0.7770   -2.9710 c3        1 MOL      0.036210
    141 H60         7.3640    2.3720   -1.1390 h1        1 MOL      0.015068
    142 H61         4.6200    3.3780   -1.6580 hc        1 MOL      0.005334
    143 H62         6.2000    3.9600   -2.3570 hc        1 MOL      0.005334
    144 H63         4.1590    2.3630   -3.5530 hc        1 MOL      0.038619
    145 H64         5.8130    2.4930   -4.2180 hc        1 MOL      0.038619
    146 H65         4.6480    0.2630   -2.9000 h1        1 MOL      0.008453
    147 H66         6.2430    0.3330   -3.7400 h1        1 MOL      0.008453
    148 N13         4.6980    1.6240    0.6880 n         1 MOL      0.059129
    149 C50         3.9760    1.8280    1.9860 c3        1 MOL     -0.342754
    150 C51         4.6660    1.2270    3.1640 c         1 MOL      0.512001
    151 O21         4.6300    1.7990    4.2490 o         1 MOL     -0.550683
    152 C52         2.5320    1.4180    1.8610 c3        1 MOL      0.004595
    153 C53         1.7810    2.0450    0.6780 c3        1 MOL     -0.158348
    154 C54         0.3380    1.4660    0.4120 c         1 MOL      0.601131
    155 O22         0.0190    0.4070    0.9490 o         1 MOL     -0.736516
    156 O23        -0.4730    1.9600   -0.3640 o         1 MOL     -0.736516
    157 H67         4.1980    1.1230   -0.0370 hn        1 MOL      0.179258
    158 H68         4.0400    2.9060    2.1490 h1        1 MOL      0.168892
    159 H69         1.9580    1.5950    2.7620 hc        1 MOL      0.080169
    160 H70         2.4690    0.3380    1.7210 hc        1 MOL      0.080169
    161 H71         2.3590    1.9290   -0.2400 hc        1 MOL      0.060285
    162 H72         1.7120    3.0910    0.9750 hc        1 MOL      0.060285
    163 N14         5.2910    0.0560    2.8780 n         1 MOL     -0.063223
    164 C55         6.1970   -0.6680    3.7750 c3        1 MOL     -0.243699
    165 H73         6.8870    0.0370    4.2400 h1        1 MOL      0.085324
    166 H74         5.6170   -1.1720    4.5490 h1        1 MOL      0.085324
    167 H75         6.7610   -1.4060    3.2050 h1        1 MOL      0.085324
    168 H76         5.1090   -0.4070    2.0050 hn        1 MOL      0.100484
    169 Ca1        -2.2070    0.0200   -0.5710 Ca        1 MOL      1.807071
    170 O24        -3.9480   -0.8690    1.3520 oh        1 MOL     -0.889104
    171 H77        -3.4090   -0.8200    2.1390 ho        1 MOL      0.413586
    172 H78        -4.7850   -1.2040    1.6610 ho        1 MOL      0.413586
@<TRIPOS>BOND
     1    1    2 1   
     2    1    4 1   
     3    1    5 1   
     4    1    6 1   
     5    2    3 2   
     6    2    7 1   
     7    7    8 1   
     8    7   15 1   
     9    8    9 1   
    10    8   11 1   
    11    8   16 1   
    12    9   10 2   
    13    9   19 1   
    14   11   12 1   
    15   11   17 1   
    16   11   18 1   
    17   12   13 1   
    18   12   14 1   
    19   19   20 1   
    20   19   24 1   
    21   20   21 1   
    22   20   23 1   
    23   20   25 1   
    24   21   22 2   
    25   21   29 1   
    26   23   26 1   
    27   23   27 1   
    28   23   28 1   
    29   29   30 1   
    30   29   37 1   
    31   30   31 1   
    32   30   33 1   
    33   30   38 1   
    34   31   32 2   
    35   31   41 1   
    36   33   34 1   
    37   33   39 1   
    38   33   40 1   
    39   34   35 1   
    40   34   36 1   
    41   41   42 1   
    42   41   45 1   
    43   42   43 1   
    44   42   46 1   
    45   42   47 1   
    46   43   44 2   
    47   43   48 1   
    48   48   49 1   
    49   48   56 1   
    50   49   50 1   
    51   49   52 1   
    52   49   57 1   
    53   50   51 2   
    54   50   62 1   
    55   52   53 1   
    56   52   58 1   
    57   52   59 1   
    58   53   54 1   
    59   53   55 2   
    60   54   60 1   
    61   54   61 1   
    62   62   63 1   
    63   62   66 1   
    64   63   64 1   
    65   63   67 1   
    66   63   68 1   
    67   64   65 2   
    68   64   69 1   
    69   69   70 1   
    70   69   76 1   
    71   70   71 1   
    72   70   73 1   
    73   70   77 1   
    74   71   72 2   
    75   71   83 1   
    76   73   74 1   
    77   73   75 1   
    78   73   78 1   
    79   74   80 1   
    80   74   81 1   
    81   74   82 1   
    82   75   79 1   
    83   83   84 1   
    84   83   91 1   
    85   84   85 1   
    86   84   87 1   
    87   84   92 1   
    88   85   86 2   
    89   85  102 1   
    90   87   88 1   
    91   87   89 1   
    92   87   93 1   
    93   88   90 1   
    94   88   94 1   
    95   88   95 1   
    96   89   96 1   
    97   89   97 1   
    98   89   98 1   
    99   90   99 1   
   100   90  100 1   
   101   90  101 1   
   102  102  103 1   
   103  102  110 1   
   104  103  104 1   
   105  103  106 1   
   106  103  111 1   
   107  104  105 2   
   108  104  114 1   
   109  106  107 1   
   110  106  112 1   
   111  106  113 1   
   112  107  108 1   
   113  107  109 1   
   114  114  115 1   
   115  114  125 1   
   116  115  116 1   
   117  115  118 1   
   118  115  126 1   
   119  116  117 2   
   120  116  134 1   
   121  118  119 1   
   122  118  127 1   
   123  118  128 1   
   124  119  120 ar  
   125  119  121 ar  
   126  120  122 ar  
   127  120  129 1   
   128  121  123 ar  
   129  121  130 1   
   130  122  124 ar  
   131  122  131 1   
   132  123  124 ar  
   133  123  132 1   
   134  124  133 1   
   135  134  135 1   
   136  134  140 1   
   137  135  136 1   
   138  135  138 1   
   139  135  141 1   
   140  136  137 2   
   141  136  148 1   
   142  138  139 1   
   143  138  142 1   
   144  138  143 1   
   145  139  140 1   
   146  139  144 1   
   147  139  145 1   
   148  140  146 1   
   149  140  147 1   
   150  148  149 1   
   151  148  157 1   
   152  149  150 1   
   153  149  152 1   
   154  149  158 1   
   155  150  151 2   
   156  150  163 1   
   157  152  153 1   
   158  152  159 1   
   159  152  160 1   
   160  153  154 1   
   161  153  161 1   
   162  153  162 1   
   163  154  155 1   
   164  154  156 1   
   165  163  164 1   
   166  163  168 1   
   167  164  165 1   
   168  164  166 1   
   169  164  167 1   
   170  170  171 1   
   171  170  172 1   
@<TRIPOS>SUBSTRUCTURE
     1 MOL         1 TEMP              0 ****  ****    0 ROOT
