@<TRIPOS>MOLECULE
MOL
  189   185     1     0     0
SMALL
resp


@<TRIPOS>ATOM
      1 C1          0.1030    1.1830    6.0220 c3        1 MOL     -0.353038
      2 C2         -0.4000    1.2080    4.5410 c         1 MOL      0.681660
      3 O1          0.3420    1.4390    3.6160 o         1 MOL     -0.547009
      4 H1          1.0110    1.7810    6.1070 hc        1 MOL      0.095138
      5 H2         -0.6660    1.5940    6.6750 hc        1 MOL      0.095138
      6 H3          0.3180    0.1550    6.3170 hc        1 MOL      0.095138
      7 N1         -1.7270    1.0970    4.2510 n         1 MOL     -0.633880
      8 C3         -2.3970    0.9450    2.8750 c3        1 MOL      0.367466
      9 C4         -2.8630    2.3760    2.4360 c         1 MOL      0.326393
     10 O2         -3.8830    2.9210    2.9040 o         1 MOL     -0.518578
     11 C5         -3.3950   -0.2140    2.8620 c3        1 MOL     -0.383737
     12 C6         -4.2590   -0.2940    1.5500 c         1 MOL      0.736508
     13 O3         -5.3960   -0.7130    1.6110 o         1 MOL     -0.629069
     14 O4         -3.6600    0.1440    0.5840 o         1 MOL     -0.629069
     15 H4         -2.3380    1.0260    5.0510 hn        1 MOL      0.313627
     16 H5         -1.5650    0.7530    2.1820 h1        1 MOL     -0.002579
     17 H6         -4.0410   -0.1530    3.7470 hc        1 MOL      0.075741
     18 H7         -2.7870   -1.1100    2.9520 hc        1 MOL      0.075741
     19 N2         -2.0400    3.1150    1.7450 n         1 MOL     -0.188114
     20 C7         -2.1880    4.5920    1.4430 c3        1 MOL     -0.153458
     21 C8         -3.2840    4.8490    0.5080 c         1 MOL      0.546824
     22 O5         -3.9590    5.8380    0.6310 o         1 MOL     -0.583849
     23 C9         -0.7500    5.0420    0.9880 c3        1 MOL     -0.210982
     24 C10        -0.6450    6.5340    0.8050 c3        1 MOL      0.099202
     25 C11         0.7960    6.9260    0.8590 c3        1 MOL     -0.055575
     26 C12         0.8640    8.4470    0.5510 c3        1 MOL     -0.091684
     27 N3          0.0970    9.2000    1.5620 n4        1 MOL     -0.322938
     28 H8         -1.1530    2.6900    1.4760 hn        1 MOL      0.188704
     29 H9         -2.3450    5.1470    2.3700 h1        1 MOL      0.129402
     30 H10        -0.3980    4.5730    0.0750 hc        1 MOL      0.115742
     31 H11        -0.0990    4.7460    1.8160 hc        1 MOL      0.115742
     32 H12        -1.2200    6.9730    1.6240 hc        1 MOL      0.008371
     33 H13        -1.0700    6.8260   -0.1610 hc        1 MOL      0.008371
     34 H14         1.3490    6.3020    0.1520 hc        1 MOL      0.055100
     35 H15         1.3090    6.7140    1.8000 hc        1 MOL      0.055100
     36 H16         0.4250    8.6640   -0.4250 hx        1 MOL      0.116670
     37 H17         1.8680    8.8610    0.5020 hx        1 MOL      0.116670
     38 H18         0.5620    9.1870    2.4610 hn        1 MOL      0.319170
     39 H19        -0.0250   10.1570    1.2450 hn        1 MOL      0.319170
     40 H20        -0.8310    8.8600    1.7470 hn        1 MOL      0.319170
     41 N4         -3.4860    3.9850   -0.5220 n         1 MOL     -0.295705
     42 C13        -4.5570    4.2450   -1.5220 c3        1 MOL      0.172605
     43 C14        -5.8320    3.3700   -1.1170 c         1 MOL      0.341186
     44 O6         -6.8690    3.6160   -1.7280 o         1 MOL     -0.539726
     45 C15        -4.1350    3.9390   -2.9610 c3        1 MOL     -0.501184
     46 C16        -3.1590    2.7090   -3.1550 c         1 MOL      0.827553
     47 O7         -3.2760    1.6430   -2.5200 o         1 MOL     -0.696303
     48 O8         -2.1630    2.7950   -3.9380 o         1 MOL     -0.696303
     49 H21        -2.9950    3.0980   -0.5260 hn        1 MOL      0.127796
     50 H22        -4.7770    5.3140   -1.5380 h1        1 MOL      0.103527
     51 H23        -3.6400    4.8440   -3.3080 hc        1 MOL      0.128975
     52 H24        -4.9770    3.7490   -3.6100 hc        1 MOL      0.128975
     53 N5         -5.7960    2.3690   -0.2370 n         1 MOL     -0.046206
     54 C17        -7.0250    1.6720    0.1650 c3        1 MOL     -0.304624
     55 C18        -7.4970    0.4990   -0.6540 c         1 MOL      0.639137
     56 O9         -8.6290    0.1000   -0.5790 o         1 MOL     -0.586172
     57 H25        -4.8810    2.0480    0.0380 hn        1 MOL      0.090613
     58 H26        -7.8200    2.4030    0.2720 h1        1 MOL      0.132305
     59 H27        -6.9130    1.2060    1.1400 h1        1 MOL      0.132305
     60 N6         -6.5820   -0.0580   -1.4530 n         1 MOL     -0.377609
     61 C19        -6.8480   -1.2010   -2.3640 c3        1 MOL      0.008232
     62 C20        -7.0030   -2.5390   -1.6880 c         1 MOL      0.474913
     63 O10        -7.3850   -3.4530   -2.3730 o         1 MOL     -0.536562
     64 C21        -5.6830   -1.2260   -3.4450 c3        1 MOL     -0.281019
     65 C22        -4.2650   -1.3390   -2.8090 c         1 MOL      0.745315
     66 O11        -4.1200   -1.7550   -1.6040 o         1 MOL     -0.686649
     67 O12        -3.2700   -0.9900   -3.4870 o         1 MOL     -0.686649
     68 H28        -5.6760    0.3660   -1.5820 hn        1 MOL      0.270461
     69 H29        -7.8170   -1.0840   -2.8520 h1        1 MOL      0.088590
     70 H30        -5.6600   -0.2580   -3.9340 hc        1 MOL      0.096534
     71 H31        -5.8300   -2.0160   -4.1840 hc        1 MOL      0.096534
     72 N7         -6.6090   -2.6640   -0.3810 n         1 MOL     -0.193603
     73 C23        -6.6880   -3.8350    0.4510 c3        1 MOL     -0.206938
     74 C24        -5.3420   -4.4980    0.7060 c         1 MOL      0.624611
     75 O13        -5.3370   -5.6520    1.2040 o         1 MOL     -0.605958
     76 H32        -6.1490   -1.8860    0.0690 hn        1 MOL      0.228923
     77 H33        -7.2790   -4.5920   -0.0680 h1        1 MOL      0.098378
     78 H34        -7.1470   -3.5020    1.3800 h1        1 MOL      0.098378
     79 N8         -4.2690   -3.7760    0.3990 n         1 MOL     -0.364432
     80 C25        -2.9030   -4.3450    0.4170 c3        1 MOL     -0.039050
     81 C26        -1.7260   -3.4590    0.8290 c         1 MOL      0.650668
     82 O14        -1.7460   -2.2770    0.4510 o         1 MOL     -0.685690
     83 C27        -2.5820   -5.0430   -0.9310 c3        1 MOL      0.543916
     84 C28        -3.0680   -6.4700   -0.8960 c3        1 MOL     -0.374637
     85 O15        -3.2030   -4.4100   -1.9940 oh        1 MOL     -0.648473
     86 H35        -4.4570   -2.8370    0.0680 hn        1 MOL      0.230158
     87 H36        -2.9510   -5.0300    1.2690 h1        1 MOL      0.039526
     88 H37        -1.5000   -5.1390   -1.0140 h1        1 MOL     -0.087705
     89 H38        -3.3710   -3.5000   -1.7260 ho        1 MOL      0.400051
     90 H39        -2.6550   -7.0080   -1.7410 hc        1 MOL      0.086256
     91 H40        -2.6700   -6.9900   -0.0240 hc        1 MOL      0.086256
     92 H41        -4.1460   -6.4990   -1.0460 hc        1 MOL      0.086256
     93 N9         -0.6440   -4.0530    1.3990 n         1 MOL     -0.558694
     94 C29         0.6560   -3.3550    1.6580 c3        1 MOL     -0.102782
     95 C30         1.8100   -3.7800    0.7320 c         1 MOL      0.464824
     96 O16         2.3470   -4.8640    0.7920 o         1 MOL     -0.551558
     97 C31         1.1120   -3.5240    3.0780 c3        1 MOL      0.381926
     98 C32        -0.0220   -3.4310    4.1070 c3        1 MOL     -0.077432
     99 C33         2.1600   -2.5070    3.3670 c3        1 MOL     -0.398135
    100 C34         0.3340   -3.8110    5.5270 c3        1 MOL     -0.076710
    101 H42        -0.6210   -5.0380    1.6090 hn        1 MOL      0.306886
    102 H43         0.5250   -2.2960    1.4470 h1        1 MOL      0.171809
    103 H44         1.6050   -4.4830    3.2360 hc        1 MOL     -0.053536
    104 H45        -0.8750   -4.0640    3.8530 hc        1 MOL      0.024852
    105 H46        -0.2840   -2.3690    4.1330 hc        1 MOL      0.024852
    106 H47         2.7530   -2.7860    4.2430 hc        1 MOL      0.079077
    107 H48         2.9530   -2.5480    2.6240 hc        1 MOL      0.079077
    108 H49         1.7080   -1.5130    3.3690 hc        1 MOL      0.079077
    109 H50         0.7650   -4.8100    5.5460 hc        1 MOL      0.017166
    110 H51         1.1140   -3.1880    5.9550 hc        1 MOL      0.017166
    111 H52        -0.5300   -3.7500    6.2010 hc        1 MOL      0.017166
    112 N10         2.2400   -2.8700   -0.0960 n         1 MOL     -0.138495
    113 C35         3.4830   -2.9670   -0.9320 c3        1 MOL     -0.109391
    114 C36         4.7770   -2.8200   -0.2010 c         1 MOL      0.348075
    115 O17         4.8570   -2.0740    0.7300 o         1 MOL     -0.226468
    116 C37         3.4280   -1.9980   -2.1410 c3        1 MOL      0.207414
    117 C38         2.3040   -2.4630   -3.0430 c3        1 MOL     -0.283069
    118 O18         3.2780   -0.6670   -1.7770 oh        1 MOL     -0.559395
    119 H53         1.6410   -2.0680   -0.1930 hn        1 MOL      0.224476
    120 H54         3.5200   -3.9890   -1.3260 h1        1 MOL      0.069569
    121 H55         4.3070   -2.1470   -2.7680 h1        1 MOL      0.056227
    122 H56         2.3580   -0.6370   -1.4840 ho        1 MOL      0.444167
    123 H57         2.5650   -3.3870   -3.5370 hc        1 MOL      0.081755
    124 H58         1.3720   -2.5700   -2.4890 hc        1 MOL      0.081755
    125 H59         2.2440   -1.7210   -3.8410 hc        1 MOL      0.081755
    126 N11         5.8780   -3.3180   -0.7800 n         1 MOL     -0.354223
    127 C39         7.2810   -3.0030   -0.4320 c3        1 MOL     -0.066973
    128 C40         7.5690   -1.4920   -0.2510 c         1 MOL      0.248093
    129 O19         8.1560   -1.1060    0.7750 o         1 MOL     -0.480710
    130 C41         8.2820   -3.4770   -1.5080 c3        1 MOL      0.352374
    131 C42         8.3680   -4.9840   -1.4980 c3        1 MOL     -0.407522
    132 O20         7.9780   -2.9790   -2.7280 oh        1 MOL     -0.652619
    133 H60         5.7430   -3.8260   -1.6380 hn        1 MOL      0.277543
    134 H61         7.5780   -3.4640    0.5170 h1        1 MOL      0.132635
    135 H62         9.3110   -3.2630   -1.2120 h1        1 MOL      0.023643
    136 H63         8.5900   -3.3690   -3.3600 ho        1 MOL      0.431867
    137 H64         8.5760   -5.2920   -0.4730 hc        1 MOL      0.106895
    138 H65         7.4710   -5.4400   -1.9200 hc        1 MOL      0.106895
    139 H66         9.1840   -5.1430   -2.2110 hc        1 MOL      0.106895
    140 N12         7.0510   -0.6900   -1.1180 n         1 MOL     -0.094639
    141 C43         7.0170    0.7390   -1.1820 c3        1 MOL      0.004038
    142 C44         6.3370    1.3540   -0.0050 c         1 MOL      0.422449
    143 O21         6.9390    2.0690    0.7530 o         1 MOL     -0.533140
    144 C45         6.4850    1.2550   -2.5540 c3        1 MOL     -0.097441
    145 C46         6.3620    2.7590   -2.7290 c3        1 MOL     -0.023521
    146 C47         7.5750    3.6390   -2.4880 c3        1 MOL     -0.084958
    147 C48         8.6670    3.5590   -3.5440 c3        1 MOL      0.098345
    148 N13         9.7870    4.5570   -3.3340 n4        1 MOL     -0.411308
    149 H67         6.6990   -1.1550   -1.9360 hn        1 MOL      0.169047
    150 H68         8.0570    1.0770   -1.1060 h1        1 MOL      0.053886
    151 H69         5.4980    0.8770   -2.8050 hc        1 MOL      0.041273
    152 H70         7.3100    0.9180   -3.1750 hc        1 MOL      0.041273
    153 H71         5.5580    3.1420   -2.0940 hc        1 MOL      0.049139
    154 H72         6.1740    2.8870   -3.7960 hc        1 MOL      0.049139
    155 H73         8.0450    3.5200   -1.5110 hc        1 MOL      0.047689
    156 H74         7.1230    4.6300   -2.4730 hc        1 MOL      0.047689
    157 H75         8.2010    3.7070   -4.5120 hx        1 MOL      0.072947
    158 H76         9.0480    2.5560   -3.6680 hx        1 MOL      0.072947
    159 H77        10.4380    4.2580   -2.6190 hn        1 MOL      0.334729
    160 H78        10.3800    4.7150   -4.1360 hn        1 MOL      0.334729
    161 H79         9.4990    5.4620   -2.9730 hn        1 MOL      0.334729
    162 N14         5.0890    0.9340    0.2980 n         1 MOL     -0.137343
    163 C49         4.2510    1.4290    1.4500 c3        1 MOL     -0.138994
    164 C50         4.8020    1.0140    2.8320 c         1 MOL      0.474849
    165 O22         4.5320    1.7370    3.7220 o         1 MOL     -0.544965
    166 C51         2.8110    0.8200    1.3140 c3        1 MOL      0.182168
    167 C52         1.8960    1.7220    0.5390 c3        1 MOL     -0.259308
    168 C53         0.6160    0.9250    0.0270 c         1 MOL      0.732320
    169 O23         0.6660   -0.2240   -0.4580 o         1 MOL     -0.738664
    170 O24        -0.4800    1.5570   -0.0640 o         1 MOL     -0.738664
    171 H80         4.6010    0.3140   -0.3400 hn        1 MOL      0.128934
    172 H81         4.2560    2.5200    1.3840 h1        1 MOL      0.081361
    173 H82         2.3380    0.6090    2.2780 hc        1 MOL     -0.023073
    174 H83         2.9260   -0.1380    0.8000 hc        1 MOL     -0.023073
    175 H84         2.3950    2.0770   -0.3580 hc        1 MOL      0.055970
    176 H85         1.4990    2.5080    1.1800 hc        1 MOL      0.055970
    177 N15         5.4400   -0.1640    2.9010 n         1 MOL     -0.049902
    178 C54         6.0610   -0.8360    4.0620 c3        1 MOL     -0.255580
    179 H86         6.9350   -0.2700    4.3840 h1        1 MOL      0.101572
    180 H87         5.3410   -0.8900    4.8800 h1        1 MOL      0.101572
    181 H88         6.3660   -1.8430    3.7790 h1        1 MOL      0.101572
    182 H89         5.3160   -0.6750    2.0350 hn        1 MOL      0.043328
    183 Ca1        -1.9700   -0.0570   -1.2400 Ca        1 MOL      1.743990
    184 O25        -0.3640    1.0650   -3.3940 oh        1 MOL     -0.858286
    185 H90         0.4250    1.2120   -3.9150 ho        1 MOL      0.383789
    186 H91        -0.9890    1.7280   -3.6980 ho        1 MOL      0.383789
    187 O26        -1.1960   -2.2000   -2.8500 oh        1 MOL     -0.858286
    188 H92        -1.0480   -3.0830   -3.1910 ho        1 MOL      0.383789
    189 H93        -2.0190   -1.9270   -3.2650 ho        1 MOL      0.383789
@<TRIPOS>BOND
     1    1    2 1   
     2    1    4 1   
     3    1    5 1   
     4    1    6 1   
     5    2    3 2   
     6    2    7 1   
     7    7    8 1   
     8    7   15 1   
     9    8    9 1   
    10    8   11 1   
    11    8   16 1   
    12    9   10 2   
    13    9   19 1   
    14   11   12 1   
    15   11   17 1   
    16   11   18 1   
    17   12   13 1   
    18   12   14 1   
    19   19   20 1   
    20   19   28 1   
    21   20   21 1   
    22   20   23 1   
    23   20   29 1   
    24   21   22 2   
    25   21   41 1   
    26   23   24 1   
    27   23   30 1   
    28   23   31 1   
    29   24   25 1   
    30   24   32 1   
    31   24   33 1   
    32   25   26 1   
    33   25   34 1   
    34   25   35 1   
    35   26   27 1   
    36   26   36 1   
    37   26   37 1   
    38   27   38 1   
    39   27   39 1   
    40   27   40 1   
    41   41   42 1   
    42   41   49 1   
    43   42   43 1   
    44   42   45 1   
    45   42   50 1   
    46   43   44 2   
    47   43   53 1   
    48   45   46 1   
    49   45   51 1   
    50   45   52 1   
    51   46   47 1   
    52   46   48 1   
    53   53   54 1   
    54   53   57 1   
    55   54   55 1   
    56   54   58 1   
    57   54   59 1   
    58   55   56 2   
    59   55   60 1   
    60   60   61 1   
    61   60   68 1   
    62   61   62 1   
    63   61   64 1   
    64   61   69 1   
    65   62   63 2   
    66   62   72 1   
    67   64   65 1   
    68   64   70 1   
    69   64   71 1   
    70   65   66 1   
    71   65   67 1   
    72   72   73 1   
    73   72   76 1   
    74   73   74 1   
    75   73   77 1   
    76   73   78 1   
    77   74   75 2   
    78   74   79 1   
    79   79   80 1   
    80   79   86 1   
    81   80   81 1   
    82   80   83 1   
    83   80   87 1   
    84   81   82 2   
    85   81   93 1   
    86   83   84 1   
    87   83   85 1   
    88   83   88 1   
    89   84   90 1   
    90   84   91 1   
    91   84   92 1   
    92   85   89 1   
    93   93   94 1   
    94   93  101 1   
    95   94   95 1   
    96   94   97 1   
    97   94  102 1   
    98   95   96 2   
    99   95  112 1   
   100   97   98 1   
   101   97   99 1   
   102   97  103 1   
   103   98  100 1   
   104   98  104 1   
   105   98  105 1   
   106   99  106 1   
   107   99  107 1   
   108   99  108 1   
   109  100  109 1   
   110  100  110 1   
   111  100  111 1   
   112  112  113 1   
   113  112  119 1   
   114  113  114 1   
   115  113  116 1   
   116  113  120 1   
   117  114  115 2   
   118  114  126 1   
   119  116  117 1   
   120  116  118 1   
   121  116  121 1   
   122  117  123 1   
   123  117  124 1   
   124  117  125 1   
   125  118  122 1   
   126  126  127 1   
   127  126  133 1   
   128  127  128 1   
   129  127  130 1   
   130  127  134 1   
   131  128  129 2   
   132  128  140 1   
   133  130  131 1   
   134  130  132 1   
   135  130  135 1   
   136  131  137 1   
   137  131  138 1   
   138  131  139 1   
   139  132  136 1   
   140  140  141 1   
   141  140  149 1   
   142  141  142 1   
   143  141  144 1   
   144  141  150 1   
   145  142  143 2   
   146  142  162 1   
   147  144  145 1   
   148  144  151 1   
   149  144  152 1   
   150  145  146 1   
   151  145  153 1   
   152  145  154 1   
   153  146  147 1   
   154  146  155 1   
   155  146  156 1   
   156  147  148 1   
   157  147  157 1   
   158  147  158 1   
   159  148  159 1   
   160  148  160 1   
   161  148  161 1   
   162  162  163 1   
   163  162  171 1   
   164  163  164 1   
   165  163  166 1   
   166  163  172 1   
   167  164  165 2   
   168  164  177 1   
   169  166  167 1   
   170  166  173 1   
   171  166  174 1   
   172  167  168 1   
   173  167  175 1   
   174  167  176 1   
   175  168  169 1   
   176  168  170 1   
   177  177  178 1   
   178  177  182 1   
   179  178  179 1   
   180  178  180 1   
   181  178  181 1   
   182  184  185 1   
   183  184  186 1   
   184  187  188 1   
   185  187  189 1   
@<TRIPOS>SUBSTRUCTURE
     1 MOL         1 TEMP              0 ****  ****    0 ROOT
