@<TRIPOS>MOLECULE
MOL
  179   176     1     0     0
SMALL
resp


@<TRIPOS>ATOM
      1 C1          2.4670    3.2200    6.3710 c3        1 MOL     -0.271203
      2 C2          2.1690    2.8640    4.8440 c         1 MOL      0.643974
      3 O1          2.9980    2.1740    4.2390 o         1 MOL     -0.554224
      4 H1          3.4290    3.7260    6.4440 hc        1 MOL      0.071076
      5 H2          1.6830    3.8750    6.7510 hc        1 MOL      0.071076
      6 H3          2.4930    2.3030    6.9600 hc        1 MOL      0.071076
      7 N1          0.9290    3.1310    4.3460 n         1 MOL     -0.541268
      8 C3          0.5730    2.8580    2.9720 c3        1 MOL      0.099943
      9 C4          0.5840    4.1320    2.0910 c         1 MOL      0.411635
     10 O2          0.3860    5.2980    2.6530 o         1 MOL     -0.542615
     11 C5         -0.8370    2.2680    3.0160 c3        1 MOL     -0.165648
     12 C6         -1.3090    1.5970    1.7670 c         1 MOL      0.871578
     13 O3         -1.8150    0.4560    1.6980 o         1 MOL     -0.850659
     14 O4         -1.0960    2.1690    0.7020 o         1 MOL     -0.850659
     15 H4          0.3460    3.7270    4.9160 hn        1 MOL      0.320386
     16 H5          1.2070    2.0670    2.5870 h1        1 MOL      0.062105
     17 H6         -1.4810    3.0850    3.3410 hc        1 MOL      0.044162
     18 H7         -0.9160    1.5690    3.8490 hc        1 MOL      0.044162
     19 N2          0.8660    3.9370    0.8450 n         1 MOL     -0.185680
     20 C7          1.0190    4.9930   -0.1170 c3        1 MOL     -0.046898
     21 C8         -0.2880    5.5100   -0.8140 c         1 MOL      0.522351
     22 O5         -0.3290    6.6930   -0.9750 o         1 MOL     -0.552398
     23 C9          1.9720    4.6580   -1.2540 c3        1 MOL     -0.168451
     24 C10         3.3800    4.5030   -0.7920 c3        1 MOL      0.012246
     25 C11         4.3730    4.4780   -2.0400 c3        1 MOL     -0.277846
     26 C12         4.5660    5.9430   -2.6310 c3        1 MOL      0.213194
     27 N3          5.5760    5.8530   -3.7430 n4        1 MOL     -0.556904
     28 H8          1.0040    3.0060    0.4770 hn        1 MOL      0.220271
     29 H9          1.3200    5.8340    0.5050 h1        1 MOL      0.090964
     30 H10         2.0040    5.4200   -2.0380 hc        1 MOL      0.062903
     31 H11         1.6790    3.7510   -1.7840 hc        1 MOL      0.062903
     32 H12         3.4280    3.5710   -0.2380 hc        1 MOL      0.049733
     33 H13         3.6460    5.3350   -0.1350 hc        1 MOL      0.049733
     34 H14         3.9680    3.8690   -2.8450 hc        1 MOL      0.115909
     35 H15         5.2990    4.1160   -1.5960 hc        1 MOL      0.115909
     36 H16         4.9500    6.6810   -1.9250 hx        1 MOL      0.061680
     37 H17         3.6280    6.4060   -2.9080 hx        1 MOL      0.061680
     38 H18         6.4350    5.4560   -3.3970 hn        1 MOL      0.372856
     39 H19         5.1830    5.2990   -4.4900 hn        1 MOL      0.372856
     40 H20         5.7770    6.7910   -4.0580 hn        1 MOL      0.372856
     41 N4         -1.1690    4.6000   -1.2430 n         1 MOL     -0.312646
     42 C13        -2.5160    5.0280   -1.8390 c3        1 MOL     -0.061011
     43 C14        -3.6580    4.7560   -0.8760 c         1 MOL      0.496586
     44 O6         -4.7960    5.0420   -1.0470 o         1 MOL     -0.560299
     45 C15        -2.7630    4.2280   -3.0900 c3        1 MOL     -0.109377
     46 C16        -2.8650    2.6350   -2.9240 c         1 MOL      0.708249
     47 O7         -2.8210    2.0750   -1.7540 o         1 MOL     -0.681015
     48 O8         -3.0940    1.9850   -3.9480 o         1 MOL     -0.681015
     49 H21        -0.9750    3.6140   -1.1980 hn        1 MOL      0.208433
     50 H22        -2.3830    6.0580   -2.1510 h1        1 MOL      0.123052
     51 H23        -1.9930    4.4340   -3.8260 hc        1 MOL      0.042039
     52 H24        -3.7010    4.5010   -3.5670 hc        1 MOL      0.042039
     53 N5         -3.4340    4.0800    0.2250 n         1 MOL     -0.220134
     54 C17        -4.4230    3.7370    1.2620 c3        1 MOL     -0.284789
     55 C18        -5.5440    2.8160    0.8000 c         1 MOL      0.692182
     56 O9         -6.5860    2.8680    1.3540 o         1 MOL     -0.618382
     57 H25        -2.5500    3.6050    0.2950 hn        1 MOL      0.199026
     58 H26        -4.8610    4.6920    1.5560 h1        1 MOL      0.123144
     59 H27        -3.8510    3.2890    2.0770 h1        1 MOL      0.123144
     60 N6         -5.3710    2.1330   -0.3260 n         1 MOL     -0.233587
     61 C19        -6.4660    1.3300   -0.8710 c3        1 MOL     -0.020256
     62 C20        -6.8550    0.1320    0.0860 c         1 MOL      0.371674
     63 O10        -7.7990   -0.6090   -0.2270 o         1 MOL     -0.500487
     64 C21        -5.9760    0.7450   -2.1840 c3        1 MOL     -0.341121
     65 C22        -4.8850   -0.3170   -2.0110 c         1 MOL      0.895591
     66 N7         -4.8310   -1.3000   -2.8450 n         1 MOL     -0.684265
     67 O11        -4.1540   -0.4140   -1.0090 o         1 MOL     -0.836531
     68 H28        -4.4940    2.2440   -0.8220 hn        1 MOL      0.213442
     69 H29        -7.3020    1.9940   -1.0670 h1        1 MOL      0.124911
     70 H30        -5.6750    1.5700   -2.8340 hc        1 MOL      0.117446
     71 H31        -6.8440    0.2580   -2.6300 hc        1 MOL      0.117446
     72 H32        -5.3410   -1.2440   -3.7160 hn        1 MOL      0.303199
     73 H33        -4.4890   -2.1870   -2.5010 hn        1 MOL      0.303199
     74 N8         -6.1590   -0.1390    1.2410 n         1 MOL     -0.099991
     75 C23        -6.6180   -1.1620    2.2770 c3        1 MOL     -0.272110
     76 C24        -5.7620   -2.4890    2.3880 c         1 MOL      0.550813
     77 O12        -6.0270   -3.4210    3.1700 o         1 MOL     -0.558868
     78 H34        -5.3610    0.4610    1.4300 hn        1 MOL      0.160504
     79 H35        -7.6300   -1.5170    2.0920 h1        1 MOL      0.138920
     80 H36        -6.6590   -0.6710    3.2480 h1        1 MOL      0.138920
     81 N9         -4.6140   -2.5240    1.6930 n         1 MOL     -0.359858
     82 C25        -3.5850   -3.5330    1.9300 c3        1 MOL      0.222471
     83 C26        -2.2400   -3.0830    1.4090 c         1 MOL      0.202964
     84 O13        -2.1620   -2.1260    0.5700 o         1 MOL     -0.422717
     85 C27        -3.9940   -4.8700    1.3580 c3        1 MOL     -0.241838
     86 C28        -4.5370   -4.8900   -0.0750 ca        1 MOL      0.193976
     87 C29        -3.6410   -5.0500   -1.1680 ca        1 MOL     -0.281669
     88 C30        -5.8840   -4.6100   -0.4490 ca        1 MOL     -0.281669
     89 C31        -4.0090   -4.7440   -2.4680 ca        1 MOL     -0.093007
     90 C32        -6.3490   -4.5900   -1.7780 ca        1 MOL     -0.093007
     91 C33        -5.3530   -4.5530   -2.7690 ca        1 MOL      0.125757
     92 O14        -5.8060   -4.3690   -4.0430 oh        1 MOL     -0.415792
     93 H37        -4.4290   -1.8770    0.9380 hn        1 MOL      0.326239
     94 H38        -3.4580   -3.6980    3.0030 h1        1 MOL      0.047804
     95 H39        -4.7530   -5.2770    2.0300 hc        1 MOL      0.080533
     96 H40        -3.0960   -5.4960    1.3670 hc        1 MOL      0.080533
     97 H41        -2.5840   -5.2590   -1.0500 ha        1 MOL      0.168508
     98 H42        -6.6750   -4.5150    0.2830 ha        1 MOL      0.168508
     99 H43        -3.3450   -4.6820   -3.3200 ha        1 MOL      0.122442
    100 H44        -7.3820   -4.5170   -2.0870 ha        1 MOL      0.122442
    101 H45        -5.1190   -4.5220   -4.6940 ho        1 MOL      0.324850
    102 N10        -1.1500   -3.6550    1.9780 n         1 MOL     -0.236116
    103 C34         0.1590   -3.0490    1.9590 c3        1 MOL     -0.014562
    104 C35         1.0810   -3.9120    1.0620 c         1 MOL      0.312452
    105 O15         1.1510   -5.1470    1.3720 o         1 MOL     -0.545086
    106 C36         0.8370   -2.8130    3.3510 c3        1 MOL      0.012262
    107 C37         0.0230   -1.6820    3.9800 c3        1 MOL     -0.129432
    108 C38         2.3110   -2.5750    3.2030 c3        1 MOL     -0.061044
    109 C39         0.2380   -1.5540    5.5010 c3        1 MOL     -0.152408
    110 H46        -1.3330   -4.3360    2.7070 hn        1 MOL      0.264058
    111 H47         0.0060   -2.0600    1.5380 h1        1 MOL      0.000819
    112 H48         0.8090   -3.7530    3.9050 hc        1 MOL      0.046825
    113 H49        -1.0610   -1.6870    3.8560 hc        1 MOL      0.096473
    114 H50         0.4220   -0.7690    3.5300 hc        1 MOL      0.096473
    115 H51         2.8140   -2.1640    4.0750 hc        1 MOL      0.027629
    116 H52         2.8560   -3.4960    3.0430 hc        1 MOL      0.027629
    117 H53         2.5380   -1.9500    2.3390 hc        1 MOL      0.027629
    118 H54        -0.0770   -0.6110    5.9490 hc        1 MOL      0.042266
    119 H55        -0.1760   -2.4460    5.9770 hc        1 MOL      0.042266
    120 H56         1.2900   -1.7300    5.7220 hc        1 MOL      0.042266
    121 N11         1.7860   -3.3790    0.0970 n         1 MOL     -0.036743
    122 C40         2.7450   -4.1270   -0.7260 c3        1 MOL      0.027460
    123 C41         4.3100   -3.7860   -0.4700 c         1 MOL      0.320365
    124 O16         4.5690   -2.8250    0.2100 o         1 MOL     -0.289849
    125 C42         2.3490   -4.0610   -2.1430 c3        1 MOL     -0.002124
    126 O17         2.4230   -2.7880   -2.6320 oh        1 MOL     -0.589842
    127 H57         1.5710   -2.4260   -0.1230 hn        1 MOL      0.288520
    128 H58         2.6500   -5.1770   -0.4320 h1        1 MOL      0.058896
    129 H59         1.3240   -4.4110   -2.2370 h1        1 MOL      0.039812
    130 H60         3.0340   -4.6990   -2.7070 h1        1 MOL      0.039812
    131 H61         2.1480   -2.6380   -3.5360 ho        1 MOL      0.429318
    132 N12         5.2850   -4.5640   -0.9620 n         1 MOL     -0.366922
    133 C43         6.7640   -4.4370   -0.7920 c3        1 MOL      0.083792
    134 C44         7.2980   -3.0710   -1.0590 c         1 MOL      0.420660
    135 O18         7.9720   -2.4260   -0.2440 o         1 MOL     -0.486765
    136 C45         7.5340   -5.5580   -1.5300 c3        1 MOL     -0.248931
    137 H62         5.0970   -5.3340   -1.5890 hn        1 MOL      0.261063
    138 H63         6.8640   -4.5490    0.2890 h1        1 MOL      0.082573
    139 H64         8.5590   -5.5720   -1.1630 hc        1 MOL      0.089109
    140 H65         7.1440   -6.5690   -1.3610 hc        1 MOL      0.089109
    141 H66         7.5690   -5.2520   -2.5790 hc        1 MOL      0.089109
    142 N13         6.9580   -2.4510   -2.2350 n         1 MOL     -0.314057
    143 C46         7.2960   -1.0480   -2.5250 c3        1 MOL      0.035855
    144 C47         6.8750    0.0120   -1.4310 c         1 MOL      0.408687
    145 O19         7.5370    1.0270   -1.2240 o         1 MOL     -0.520067
    146 C48         6.6260   -0.7810   -3.8060 c3        1 MOL     -0.287027
    147 H67         6.4910   -2.9680   -2.9590 hn        1 MOL      0.251462
    148 H68         8.3680   -1.0320   -2.6940 h1        1 MOL      0.098591
    149 H69         6.6280    0.2640   -4.1160 hc        1 MOL      0.076789
    150 H70         7.0060   -1.4710   -4.5570 hc        1 MOL      0.076789
    151 H71         5.5700   -1.0640   -3.7510 hc        1 MOL      0.076789
    152 N14         5.7220   -0.2030   -0.7520 n         1 MOL     -0.105420
    153 C49         5.2100    0.7280    0.2040 c3        1 MOL     -0.132133
    154 C50         5.8450    0.5760    1.5790 c         1 MOL      0.526537
    155 O20         6.2040    1.5590    2.2380 o         1 MOL     -0.551811
    156 C51         3.7450    0.4890    0.3660 c3        1 MOL      0.031114
    157 C52         2.9760    0.6440   -0.9770 c3        1 MOL      0.040829
    158 C53         1.4600    0.5580   -0.8390 c         1 MOL      0.609330
    159 O21         0.8360    1.3730   -1.5090 o         1 MOL     -0.660388
    160 O22         0.9670   -0.3990   -0.2020 o         1 MOL     -0.660388
    161 H72         5.2060   -1.0360   -1.0100 hn        1 MOL      0.160688
    162 H73         5.2850    1.7760   -0.0970 h1        1 MOL      0.068798
    163 H74         3.3500    1.1270    1.1500 hc        1 MOL     -0.005003
    164 H75         3.5620   -0.5320    0.7120 hc        1 MOL     -0.005003
    165 H76         3.3030   -0.2070   -1.5690 hc        1 MOL     -0.054423
    166 H77         3.3280    1.5250   -1.5170 hc        1 MOL     -0.054423
    167 N15         5.9930   -0.6520    2.0330 n         1 MOL     -0.101139
    168 C54         6.8360   -0.9950    3.1700 c3        1 MOL     -0.425628
    169 H78         7.8570   -0.6670    2.9770 h1        1 MOL      0.154485
    170 H79         6.4600   -0.5010    4.0650 h1        1 MOL      0.154485
    171 H80         6.8240   -2.0750    3.3190 h1        1 MOL      0.154485
    172 H81         5.5600   -1.3550    1.4570 hn        1 MOL      0.111834
    173 Ca1        -1.5650   -0.0160   -0.7850 Ca        1 MOL      1.786462
    174 O23        -0.4930   -2.2380   -1.9540 oh        1 MOL     -0.875264
    175 H82         0.4620   -2.3130   -1.9530 ho        1 MOL      0.396075
    176 H83        -0.7800   -2.8110   -2.6620 ho        1 MOL      0.396075
    177 O24        -1.5830   -0.2250   -3.5370 oh        1 MOL     -0.875264
    178 H84        -2.2270    0.3830   -3.9080 ho        1 MOL      0.396075
    179 H85        -1.3080   -0.7660   -4.2770 ho        1 MOL      0.396075
@<TRIPOS>BOND
     1    1    2 1   
     2    1    4 1   
     3    1    5 1   
     4    1    6 1   
     5    2    3 2   
     6    2    7 1   
     7    7    8 1   
     8    7   15 1   
     9    8    9 1   
    10    8   11 1   
    11    8   16 1   
    12    9   10 2   
    13    9   19 1   
    14   11   12 1   
    15   11   17 1   
    16   11   18 1   
    17   12   13 1   
    18   12   14 1   
    19   19   20 1   
    20   19   28 1   
    21   20   21 1   
    22   20   23 1   
    23   20   29 1   
    24   21   22 2   
    25   21   41 1   
    26   23   24 1   
    27   23   30 1   
    28   23   31 1   
    29   24   25 1   
    30   24   32 1   
    31   24   33 1   
    32   25   26 1   
    33   25   34 1   
    34   25   35 1   
    35   26   27 1   
    36   26   36 1   
    37   26   37 1   
    38   27   38 1   
    39   27   39 1   
    40   27   40 1   
    41   41   42 1   
    42   41   49 1   
    43   42   43 1   
    44   42   45 1   
    45   42   50 1   
    46   43   44 2   
    47   43   53 1   
    48   45   46 1   
    49   45   51 1   
    50   45   52 1   
    51   46   47 1   
    52   46   48 1   
    53   53   54 1   
    54   53   57 1   
    55   54   55 1   
    56   54   58 1   
    57   54   59 1   
    58   55   56 2   
    59   55   60 1   
    60   60   61 1   
    61   60   68 1   
    62   61   62 1   
    63   61   64 1   
    64   61   69 1   
    65   62   63 2   
    66   62   74 1   
    67   64   65 1   
    68   64   70 1   
    69   64   71 1   
    70   65   66 1   
    71   65   67 2   
    72   66   72 1   
    73   66   73 1   
    74   74   75 1   
    75   74   78 1   
    76   75   76 1   
    77   75   79 1   
    78   75   80 1   
    79   76   77 2   
    80   76   81 1   
    81   81   82 1   
    82   81   93 1   
    83   82   83 1   
    84   82   85 1   
    85   82   94 1   
    86   83   84 2   
    87   83  102 1   
    88   85   86 1   
    89   85   95 1   
    90   85   96 1   
    91   86   87 ar  
    92   86   88 ar  
    93   87   89 ar  
    94   87   97 1   
    95   88   90 ar  
    96   88   98 1   
    97   89   91 ar  
    98   89   99 1   
    99   90   91 ar  
   100   90  100 1   
   101   91   92 1   
   102   92  101 1   
   103  102  103 1   
   104  102  110 1   
   105  103  104 1   
   106  103  106 1   
   107  103  111 1   
   108  104  105 2   
   109  104  121 1   
   110  106  107 1   
   111  106  108 1   
   112  106  112 1   
   113  107  109 1   
   114  107  113 1   
   115  107  114 1   
   116  108  115 1   
   117  108  116 1   
   118  108  117 1   
   119  109  118 1   
   120  109  119 1   
   121  109  120 1   
   122  121  122 1   
   123  121  127 1   
   124  122  123 1   
   125  122  125 1   
   126  122  128 1   
   127  123  124 2   
   128  123  132 1   
   129  125  126 1   
   130  125  129 1   
   131  125  130 1   
   132  126  131 1   
   133  132  133 1   
   134  132  137 1   
   135  133  134 1   
   136  133  136 1   
   137  133  138 1   
   138  134  135 2   
   139  134  142 1   
   140  136  139 1   
   141  136  140 1   
   142  136  141 1   
   143  142  143 1   
   144  142  147 1   
   145  143  144 1   
   146  143  146 1   
   147  143  148 1   
   148  144  145 2   
   149  144  152 1   
   150  146  149 1   
   151  146  150 1   
   152  146  151 1   
   153  152  153 1   
   154  152  161 1   
   155  153  154 1   
   156  153  156 1   
   157  153  162 1   
   158  154  155 2   
   159  154  167 1   
   160  156  157 1   
   161  156  163 1   
   162  156  164 1   
   163  157  158 1   
   164  157  165 1   
   165  157  166 1   
   166  158  159 1   
   167  158  160 1   
   168  167  168 1   
   169  167  172 1   
   170  168  169 1   
   171  168  170 1   
   172  168  171 1   
   173  174  175 1   
   174  174  176 1   
   175  177  178 1   
   176  177  179 1   
@<TRIPOS>SUBSTRUCTURE
     1 MOL         1 TEMP              0 ****  ****    0 ROOT
