@<TRIPOS>MOLECULE
MOL
  172   171     1     0     0
SMALL
resp


@<TRIPOS>ATOM
      1 C1          0.4860   -2.0510    6.2310 c3        1 MOL     -0.373145
      2 C2          0.5500   -1.8410    4.7220 c         1 MOL      0.728616
      3 O1         -0.3160   -2.3850    3.9710 o         1 MOL     -0.594325
      4 H1          1.3560   -2.6210    6.5560 hc        1 MOL      0.093551
      5 H2          0.4790   -1.0830    6.7330 hc        1 MOL      0.093551
      6 H3         -0.4220   -2.5980    6.4840 hc        1 MOL      0.093551
      7 N1          1.6380   -1.2050    4.2200 n         1 MOL     -0.557035
      8 C3          2.0820   -1.2670    2.7910 c3        1 MOL      0.079107
      9 C4          2.7300   -2.6870    2.5340 c         1 MOL      0.623266
     10 O2          3.6190   -3.1350    3.2670 o         1 MOL     -0.613148
     11 C5          3.1100   -0.2080    2.4780 c3        1 MOL     -0.245846
     12 C6          3.7800   -0.3090    1.1150 c         1 MOL      0.786284
     13 O3          3.1060   -0.7500    0.1230 o         1 MOL     -0.725040
     14 O4          4.9480    0.1450    1.0990 o         1 MOL     -0.725040
     15 H4          2.3060   -0.7650    4.8270 hn        1 MOL      0.291420
     16 H5          1.1470   -1.1990    2.2320 h1        1 MOL      0.049073
     17 H6          3.8150   -0.3910    3.2840 hc        1 MOL      0.053365
     18 H7          2.6100    0.7470    2.5880 hc        1 MOL      0.053365
     19 N2          2.3490   -3.3320    1.4060 n         1 MOL     -0.505772
     20 C7          2.6980   -4.7290    1.1390 c3        1 MOL      0.325546
     21 C8          3.4190   -4.8180   -0.2400 c         1 MOL      0.217831
     22 O5          3.8530   -5.8920   -0.6020 o         1 MOL     -0.530368
     23 C9          1.3920   -5.5100    1.1120 c3        1 MOL     -0.365365
     24 H8          1.6730   -2.9230    0.7800 hn        1 MOL      0.320032
     25 H9          3.3830   -5.1760    1.8640 h1        1 MOL      0.015211
     26 H10         0.7070   -5.2410    0.3030 hc        1 MOL      0.096307
     27 H11         1.6400   -6.5690    1.0290 hc        1 MOL      0.096307
     28 H12         0.8260   -5.2360    1.9940 hc        1 MOL      0.096307
     29 N3          3.6840   -3.6700   -0.9270 n         1 MOL      0.318271
     30 C10         4.6790   -3.6600   -2.0080 c3        1 MOL     -0.484075
     31 C11         6.0340   -3.1110   -1.5070 c         1 MOL      0.643317
     32 O6          6.9720   -3.0400   -2.2550 o         1 MOL     -0.545599
     33 C12         4.2040   -2.8540   -3.1240 c3        1 MOL      0.200153
     34 C13         2.7490   -3.0440   -3.4150 c         1 MOL      0.457021
     35 O7          1.9740   -2.1010   -2.9810 o         1 MOL     -0.636742
     36 O8          2.3130   -4.1000   -3.9050 o         1 MOL     -0.636742
     37 H13         3.2780   -2.7850   -0.6720 hn        1 MOL      0.057895
     38 H14         4.7200   -4.6450   -2.4720 h1        1 MOL      0.173806
     39 H15         4.7100   -3.2230   -4.0200 hc        1 MOL     -0.051224
     40 H16         4.5470   -1.8190   -3.0490 hc        1 MOL     -0.051224
     41 N4          6.0470   -2.7320   -0.2490 n         1 MOL     -0.455170
     42 C14         7.2220   -2.1950    0.4240 c3        1 MOL      0.091068
     43 C15         7.9260   -1.0580   -0.3270 c         1 MOL      0.281131
     44 O9          9.1790   -0.8760   -0.3370 o         1 MOL     -0.551829
     45 H17         5.1530   -2.4980    0.1580 hn        1 MOL      0.166384
     46 H18         7.9150   -3.0140    0.6380 h1        1 MOL      0.053820
     47 H19         6.9400   -1.9260    1.4360 h1        1 MOL      0.053820
     48 N5          7.0490   -0.2130   -0.8290 n         1 MOL     -0.072531
     49 C16         7.3600    1.0950   -1.5250 c3        1 MOL     -0.239699
     50 C17         7.2190    2.4090   -0.6920 c         1 MOL      0.468128
     51 O10         7.6490    3.4320   -1.1830 o         1 MOL     -0.539635
     52 C18         6.4340    1.0550   -2.7090 c3        1 MOL     -0.158215
     53 C19         4.9970    1.5250   -2.4670 c         1 MOL      0.716624
     54 N6          4.8100    2.8270   -2.3090 n         1 MOL     -0.809278
     55 O11         4.0630    0.7810   -2.3390 o         1 MOL     -0.644357
     56 H20         6.0660   -0.3890   -0.7050 hn        1 MOL      0.360519
     57 H21         8.3740    1.1310   -1.9300 h1        1 MOL      0.169162
     58 H22         6.3960    0.0760   -3.1690 hc        1 MOL      0.065387
     59 H23         6.7630    1.6080   -3.5940 hc        1 MOL      0.065387
     60 H24         5.5460    3.4470   -2.6060 hn        1 MOL      0.344999
     61 H25         3.8900    3.0630   -1.9930 hn        1 MOL      0.344999
     62 N7          6.8540    2.2920    0.6040 n         1 MOL     -0.237764
     63 C20         6.6750    3.5350    1.4630 c3        1 MOL     -0.170946
     64 C21         5.2810    4.1200    1.5180 c         1 MOL      0.643236
     65 O12         5.1310    4.9980    2.3130 o         1 MOL     -0.591030
     66 H26         6.5960    1.3600    0.8970 hn        1 MOL      0.211708
     67 H27         7.2390    4.3660    1.0570 h1        1 MOL      0.109830
     68 H28         7.0260    3.2620    2.4640 h1        1 MOL      0.109830
     69 N8          4.2190    3.6380    0.7640 n         1 MOL     -0.371046
     70 C22         2.8480    4.2190    0.8140 c3        1 MOL      0.005012
     71 C23         1.6520    3.1430    0.8570 c         1 MOL      0.528095
     72 O13         1.8000    2.0770    0.2250 o         1 MOL     -0.480480
     73 C24         2.4540    5.1720   -0.2890 c3        1 MOL      0.439726
     74 C25         3.1940    6.4770   -0.3300 c3        1 MOL     -0.450234
     75 O14         2.6510    4.6220   -1.6030 oh        1 MOL     -0.524321
     76 H29         4.4890    2.8220    0.2270 hn        1 MOL      0.228644
     77 H30         2.7230    4.7910    1.7300 h1        1 MOL      0.055346
     78 H31         1.3890    5.3340   -0.1150 h1        1 MOL     -0.015106
     79 H32         2.1350    5.0930   -2.2500 ho        1 MOL      0.349109
     80 H33         4.0600    6.3320   -0.9820 hc        1 MOL      0.102576
     81 H34         2.5660    7.2910   -0.6790 hc        1 MOL      0.102576
     82 H35         3.3860    6.8290    0.6830 hc        1 MOL      0.102576
     83 N9          0.5550    3.4700    1.4950 n         1 MOL     -0.587787
     84 C26        -0.5510    2.5720    1.5630 c3        1 MOL     -0.054303
     85 C27        -1.4540    2.8480    0.2970 c         1 MOL      0.628500
     86 O15        -1.7320    3.9740   -0.0410 o         1 MOL     -0.599834
     87 C28        -1.2870    2.8780    2.8720 c3        1 MOL      0.097921
     88 C29        -0.3380    2.5360    4.0080 c3        1 MOL      0.345591
     89 C30        -2.6100    2.1140    2.9960 c3        1 MOL     -0.067856
     90 C31        -0.8050    2.8590    5.3730 c3        1 MOL     -0.252652
     91 H36         0.4110    4.2890    2.0650 hn        1 MOL      0.314010
     92 H37        -0.1240    1.5640    1.5620 h1        1 MOL      0.161155
     93 H38        -1.5140    3.9480    2.9020 hc        1 MOL     -0.007086
     94 H39         0.5170    3.2140    3.9920 hc        1 MOL     -0.082311
     95 H40         0.0320    1.5120    3.9910 hc        1 MOL     -0.082311
     96 H41        -3.1500    2.4130    2.0990 hc        1 MOL     -0.012118
     97 H42        -2.5590    1.0200    2.9820 hc        1 MOL     -0.012118
     98 H43        -3.0840    2.4480    3.9200 hc        1 MOL     -0.012118
     99 H44        -1.6000    2.1720    5.6690 hc        1 MOL      0.039607
    100 H45        -0.0420    2.5980    6.0980 hc        1 MOL      0.039607
    101 H46        -1.0500    3.9250    5.3800 hc        1 MOL      0.039607
    102 N10        -1.9590    1.7930   -0.3020 n         1 MOL     -0.293461
    103 C32        -3.0790    1.7250   -1.3120 c3        1 MOL      0.311573
    104 C33        -4.4540    1.3380   -0.7080 c         1 MOL      0.361341
    105 O16        -4.4250    0.6210    0.2960 o         1 MOL     -0.364061
    106 C34        -2.6880    0.7290   -2.4410 c3        1 MOL     -0.414466
    107 C35        -1.3430    1.0860   -3.0630 c         1 MOL      0.978320
    108 O17        -1.1990    2.1800   -3.5650 o         1 MOL     -0.785112
    109 O18        -0.4260    0.1980   -3.2200 o         1 MOL     -0.785112
    110 H47        -1.6970    0.8950    0.0570 hn        1 MOL      0.050418
    111 H48        -3.1670    2.7520   -1.6470 h1        1 MOL     -0.002250
    112 H49        -3.4270    0.7220   -3.2380 hc        1 MOL      0.083734
    113 H50        -2.7080   -0.3030   -2.0720 hc        1 MOL      0.083734
    114 N11        -5.5280    1.6660   -1.3430 n         1 MOL     -0.636856
    115 C36        -6.8350    1.3330   -0.7840 c3        1 MOL      0.469468
    116 C37        -7.0580   -0.1930   -0.7480 c         1 MOL      0.318546
    117 O19        -7.6510   -0.5850    0.2500 o         1 MOL     -0.510976
    118 C38        -7.8900    1.9090   -1.7050 c3        1 MOL     -0.352541
    119 C39        -9.3500    1.7170   -1.2830 ca        1 MOL      0.091961
    120 C40        -9.7150    2.2160   -0.0600 ca        1 MOL     -0.075668
    121 C41       -10.3450    1.1950   -2.1510 ca        1 MOL     -0.075668
    122 C42       -11.0100    2.3450    0.3670 ca        1 MOL     -0.199421
    123 C43       -11.6750    1.2490   -1.7380 ca        1 MOL     -0.199421
    124 C44       -12.0160    1.7320   -0.4630 ca        1 MOL     -0.039624
    125 H51        -5.4320    2.1500   -2.2180 hn        1 MOL      0.329700
    126 H52        -6.9830    1.6130    0.2500 h1        1 MOL      0.033834
    127 H53        -7.6990    1.5710   -2.7240 hc        1 MOL      0.091068
    128 H54        -7.7410    2.9950   -1.7570 hc        1 MOL      0.091068
    129 H55        -8.9440    2.6080    0.5920 ha        1 MOL      0.093910
    130 H56       -10.1080    0.8410   -3.1340 ha        1 MOL      0.093910
    131 H57       -11.1900    2.7720    1.3400 ha        1 MOL      0.131016
    132 H58       -12.5060    0.9800   -2.3650 ha        1 MOL      0.131016
    133 H59       -13.0530    1.8020   -0.1700 ha        1 MOL      0.080741
    134 N12        -6.5220   -1.0280   -1.6220 n         1 MOL     -0.108251
    135 C45        -6.5380   -2.4890   -1.3760 c3        1 MOL      0.091728
    136 C46        -5.8330   -2.9680   -0.1270 c         1 MOL      0.232224
    137 O20        -6.2570   -3.9470    0.5000 o         1 MOL     -0.490000
    138 C47        -5.9340   -3.1290   -2.6060 c3        1 MOL     -0.008703
    139 C48        -6.1440   -2.1160   -3.7570 c3        1 MOL     -0.015998
    140 C49        -5.9710   -0.8260   -2.9640 c3        1 MOL     -0.162768
    141 H60        -7.5820   -2.7960   -1.3300 h1        1 MOL      0.052471
    142 H61        -4.8610   -3.2280   -2.4680 hc        1 MOL      0.023312
    143 H62        -6.4330   -4.0750   -2.8020 hc        1 MOL      0.023312
    144 H63        -5.5270   -2.2480   -4.6420 hc        1 MOL      0.036951
    145 H64        -7.1340   -2.2630   -4.1750 hc        1 MOL      0.036951
    146 H65        -4.9410   -0.4710   -2.9000 h1        1 MOL      0.077036
    147 H66        -6.5270   -0.0320   -3.4630 h1        1 MOL      0.077036
    148 N13        -4.7580   -2.2950    0.2840 n         1 MOL     -0.084150
    149 C50        -3.9510   -2.6650    1.4550 c3        1 MOL     -0.215413
    150 C51        -4.6920   -2.1840    2.7830 c         1 MOL      0.423584
    151 O21        -4.6580   -2.8650    3.8190 o         1 MOL     -0.553999
    152 C52        -2.5330   -2.1240    1.3960 c3        1 MOL     -0.144812
    153 C53        -1.8130   -2.5640    0.1370 c3        1 MOL     -0.030982
    154 C54        -0.5640   -1.7650   -0.0330 c         1 MOL      0.702947
    155 O22        -0.6250   -0.5030   -0.0740 o         1 MOL     -0.780694
    156 O23         0.5520   -2.2990   -0.4020 o         1 MOL     -0.780694
    157 H67        -4.5060   -1.5140   -0.3140 hn        1 MOL      0.304426
    158 H68        -3.9490   -3.7550    1.5270 h1        1 MOL      0.141970
    159 H69        -1.9250   -2.4520    2.2410 hc        1 MOL      0.122197
    160 H70        -2.5410   -1.0430    1.4540 hc        1 MOL      0.122197
    161 H71        -2.4910   -2.3910   -0.6940 hc        1 MOL      0.029897
    162 H72        -1.4570   -3.5920    0.1820 hc        1 MOL      0.029897
    163 N14        -5.3930   -1.0850    2.6610 n         1 MOL      0.056113
    164 C55        -6.2570   -0.4140    3.5980 c3        1 MOL     -0.258327
    165 H73        -6.8830    0.3020    3.0660 h1        1 MOL      0.088466
    166 H74        -6.8900   -1.1470    4.0990 h1        1 MOL      0.088466
    167 H75        -5.6540    0.1120    4.3380 h1        1 MOL      0.088466
    168 H76        -5.2110   -0.5750    1.8040 hn        1 MOL      0.018223
    169 Ca1         1.4350    0.0250   -1.5620 Ca        1 MOL      1.693593
    170 O24         1.3460    2.4750   -2.9430 oh        1 MOL     -0.982925
    171 H77         1.7850    3.1720   -3.4370 ho        1 MOL      0.444758
    172 H78         0.5040    2.3650   -3.3770 ho        1 MOL      0.444758
@<TRIPOS>BOND
     1    1    2 1   
     2    1    4 1   
     3    1    5 1   
     4    1    6 1   
     5    2    3 2   
     6    2    7 1   
     7    7    8 1   
     8    7   15 1   
     9    8    9 1   
    10    8   11 1   
    11    8   16 1   
    12    9   10 2   
    13    9   19 1   
    14   11   12 1   
    15   11   17 1   
    16   11   18 1   
    17   12   13 1   
    18   12   14 1   
    19   19   20 1   
    20   19   24 1   
    21   20   21 1   
    22   20   23 1   
    23   20   25 1   
    24   21   22 2   
    25   21   29 1   
    26   23   26 1   
    27   23   27 1   
    28   23   28 1   
    29   29   30 1   
    30   29   37 1   
    31   30   31 1   
    32   30   33 1   
    33   30   38 1   
    34   31   32 2   
    35   31   41 1   
    36   33   34 1   
    37   33   39 1   
    38   33   40 1   
    39   34   35 1   
    40   34   36 1   
    41   41   42 1   
    42   41   45 1   
    43   42   43 1   
    44   42   46 1   
    45   42   47 1   
    46   43   44 2   
    47   43   48 1   
    48   48   49 1   
    49   48   56 1   
    50   49   50 1   
    51   49   52 1   
    52   49   57 1   
    53   50   51 2   
    54   50   62 1   
    55   52   53 1   
    56   52   58 1   
    57   52   59 1   
    58   53   54 1   
    59   53   55 2   
    60   54   60 1   
    61   54   61 1   
    62   62   63 1   
    63   62   66 1   
    64   63   64 1   
    65   63   67 1   
    66   63   68 1   
    67   64   65 2   
    68   64   69 1   
    69   69   70 1   
    70   69   76 1   
    71   70   71 1   
    72   70   73 1   
    73   70   77 1   
    74   71   72 2   
    75   71   83 1   
    76   73   74 1   
    77   73   75 1   
    78   73   78 1   
    79   74   80 1   
    80   74   81 1   
    81   74   82 1   
    82   75   79 1   
    83   83   84 1   
    84   83   91 1   
    85   84   85 1   
    86   84   87 1   
    87   84   92 1   
    88   85   86 2   
    89   85  102 1   
    90   87   88 1   
    91   87   89 1   
    92   87   93 1   
    93   88   90 1   
    94   88   94 1   
    95   88   95 1   
    96   89   96 1   
    97   89   97 1   
    98   89   98 1   
    99   90   99 1   
   100   90  100 1   
   101   90  101 1   
   102  102  103 1   
   103  102  110 1   
   104  103  104 1   
   105  103  106 1   
   106  103  111 1   
   107  104  105 2   
   108  104  114 1   
   109  106  107 1   
   110  106  112 1   
   111  106  113 1   
   112  107  108 1   
   113  107  109 1   
   114  114  115 1   
   115  114  125 1   
   116  115  116 1   
   117  115  118 1   
   118  115  126 1   
   119  116  117 2   
   120  116  134 1   
   121  118  119 1   
   122  118  127 1   
   123  118  128 1   
   124  119  120 ar  
   125  119  121 ar  
   126  120  122 ar  
   127  120  129 1   
   128  121  123 ar  
   129  121  130 1   
   130  122  124 ar  
   131  122  131 1   
   132  123  124 ar  
   133  123  132 1   
   134  124  133 1   
   135  134  135 1   
   136  134  140 1   
   137  135  136 1   
   138  135  138 1   
   139  135  141 1   
   140  136  137 2   
   141  136  148 1   
   142  138  139 1   
   143  138  142 1   
   144  138  143 1   
   145  139  140 1   
   146  139  144 1   
   147  139  145 1   
   148  140  146 1   
   149  140  147 1   
   150  148  149 1   
   151  148  157 1   
   152  149  150 1   
   153  149  152 1   
   154  149  158 1   
   155  150  151 2   
   156  150  163 1   
   157  152  153 1   
   158  152  159 1   
   159  152  160 1   
   160  153  154 1   
   161  153  161 1   
   162  153  162 1   
   163  154  155 1   
   164  154  156 1   
   165  163  164 1   
   166  163  168 1   
   167  164  165 1   
   168  164  166 1   
   169  164  167 1   
   170  170  171 1   
   171  170  172 1   
@<TRIPOS>SUBSTRUCTURE
     1 MOL         1 TEMP              0 ****  ****    0 ROOT
