@<TRIPOS>MOLECULE
MOL
  183   181     1     0     0
SMALL
resp


@<TRIPOS>ATOM
      1 C1         -0.4600    1.9360    6.1640 c3        1 MOL     -0.320961
      2 C2         -0.8420    1.8310    4.7480 c         1 MOL      0.755765
      3 O1         -0.0450    2.0730    3.8510 o         1 MOL     -0.578530
      4 H1         -1.2910    1.6080    6.7890 hc        1 MOL      0.074891
      5 H2          0.4080    1.3060    6.3550 hc        1 MOL      0.074891
      6 H3         -0.2170    2.9720    6.3990 hc        1 MOL      0.074891
      7 N1         -2.0910    1.3230    4.4050 n         1 MOL     -0.656183
      8 C3         -2.7030    1.4240    3.0630 c3        1 MOL      0.045592
      9 C4         -3.0170    2.7900    2.6150 c         1 MOL      0.606346
     10 O2         -3.8800    3.4020    3.2340 o         1 MOL     -0.587105
     11 C5         -3.8710    0.4780    3.0970 c3        1 MOL     -0.169328
     12 C6         -4.5920    0.4070    1.6680 c         1 MOL      0.820322
     13 O3         -5.7260   -0.0940    1.6710 o         1 MOL     -0.661512
     14 O4         -3.9850    0.7980    0.6430 o         1 MOL     -0.661512
     15 H4         -2.7520    1.2420    5.1700 hn        1 MOL      0.331715
     16 H5         -1.9140    1.0440    2.4110 h1        1 MOL     -0.034874
     17 H6         -4.5650    0.8860    3.8250 hc        1 MOL      0.031789
     18 H7         -3.6380   -0.5370    3.4080 hc        1 MOL      0.031789
     19 N2         -2.4170    3.2870    1.5490 n         1 MOL     -0.291024
     20 C7         -2.7240    4.6940    1.0890 c3        1 MOL     -0.301278
     21 C8         -3.8380    4.7610    0.0170 c         1 MOL      0.718842
     22 O5         -4.5690    5.7270    0.0280 o         1 MOL     -0.616641
     23 C9         -1.3790    5.3800    0.6190 c3        1 MOL      0.322806
     24 C10        -0.4410    5.5710    1.8210 c3        1 MOL     -0.052211
     25 C11        -1.6750    6.7630    0.1120 c3        1 MOL     -0.327182
     26 C12         0.9240    6.0560    1.4340 c3        1 MOL      0.007833
     27 H8         -1.6420    2.8160    1.1060 hn        1 MOL      0.251355
     28 H9         -3.1100    5.3230    1.8940 h1        1 MOL      0.124368
     29 H10        -0.8640    4.7620   -0.1130 hc        1 MOL     -0.001248
     30 H11        -0.2180    4.5860    2.2300 hc        1 MOL      0.009914
     31 H12        -0.9480    6.1540    2.5880 hc        1 MOL      0.009914
     32 H13        -0.7740    7.1070   -0.3880 hc        1 MOL      0.062141
     33 H14        -2.3660    6.8160   -0.7300 hc        1 MOL      0.062141
     34 H15        -2.0120    7.4450    0.8910 hc        1 MOL      0.062141
     35 H16         1.6180    6.0730    2.2700 hc        1 MOL     -0.009210
     36 H17         1.2890    5.5470    0.5430 hc        1 MOL     -0.009210
     37 H18         0.9460    7.1110    1.1540 hc        1 MOL     -0.009210
     38 N3         -4.0710    3.7540   -0.7860 n         1 MOL     -0.519985
     39 C13        -5.0370    3.7740   -1.9700 c3        1 MOL      0.133316
     40 C14        -6.3760    2.9580   -1.6820 c         1 MOL      0.403599
     41 O6         -7.3390    2.9860   -2.4080 o         1 MOL     -0.550838
     42 C15        -4.3970    3.4170   -3.3240 c3        1 MOL     -0.197081
     43 C16        -3.9030    1.9520   -3.3250 c         1 MOL      0.820335
     44 O7         -4.0630    1.2100   -2.3320 o         1 MOL     -0.719727
     45 O8         -3.2900    1.5690   -4.3240 o         1 MOL     -0.719727
     46 H19        -3.7650    2.8090   -0.6510 hn        1 MOL      0.270196
     47 H20        -5.3300    4.8210   -2.0100 h1        1 MOL      0.047102
     48 H21        -3.5400    4.0500   -3.5300 hc        1 MOL      0.041474
     49 H22        -5.1420    3.6350   -4.0880 hc        1 MOL      0.041474
     50 N4         -6.4460    2.2030   -0.6110 n         1 MOL     -0.229667
     51 C17        -7.7060    1.6720   -0.0880 c3        1 MOL     -0.019919
     52 C18        -8.1150    0.2100   -0.4250 c         1 MOL      0.498699
     53 O9         -9.3070   -0.0070   -0.6510 o         1 MOL     -0.623756
     54 H23        -5.5880    2.0820   -0.1000 hn        1 MOL      0.215536
     55 H24        -8.5300    2.3750   -0.1840 h1        1 MOL      0.050225
     56 H25        -7.6360    1.6810    1.0040 h1        1 MOL      0.050225
     57 N5         -7.1750   -0.6810   -0.7010 n         1 MOL     -0.021204
     58 C19        -7.3930   -2.0880   -1.1810 c3        1 MOL     -0.043244
     59 C20        -7.2240   -3.0730   -0.0270 c         1 MOL      0.519436
     60 O10        -7.7010   -4.1800   -0.1000 o         1 MOL     -0.574019
     61 C21        -6.3950   -2.3500   -2.3660 c3        1 MOL     -0.181401
     62 C22        -4.9180   -2.0840   -2.0530 c         1 MOL      0.750664
     63 O11        -4.1210   -2.0380   -2.9940 o         1 MOL     -0.711061
     64 O12        -4.6030   -2.0680   -0.8450 o         1 MOL     -0.711061
     65 H26        -6.2840   -0.4440   -0.2760 hn        1 MOL     -0.111588
     66 H27        -8.4550   -2.1530   -1.4370 h1        1 MOL      0.082094
     67 H28        -6.6200   -1.7250   -3.2350 hc        1 MOL      0.051605
     68 H29        -6.5120   -3.3850   -2.6870 hc        1 MOL      0.051605
     69 N6         -6.5460   -2.7160    1.0840 n         1 MOL     -0.314972
     70 C23        -6.2280   -3.6280    2.2070 c3        1 MOL      0.072632
     71 C24        -4.9650   -4.5060    2.1310 c         1 MOL      0.495535
     72 O13        -4.8660   -5.5070    2.8050 o         1 MOL     -0.596299
     73 H30        -5.9760   -1.8860    1.1050 hn        1 MOL      0.198400
     74 H31        -7.0320   -4.3230    2.4480 h1        1 MOL      0.017172
     75 H32        -6.1690   -3.0500    3.1370 h1        1 MOL      0.017172
     76 N7         -4.0210   -4.0870    1.3270 n         1 MOL     -0.226504
     77 C25        -2.6380   -4.5960    1.1800 c3        1 MOL      0.022349
     78 C26        -1.6110   -3.3910    1.2510 c         1 MOL      0.461656
     79 O14        -1.8750   -2.3270    0.6650 o         1 MOL     -0.670347
     80 C27        -2.5830   -5.4550   -0.0420 c3        1 MOL      0.043166
     81 C28        -2.7930   -5.0080   -1.4740 c3        1 MOL     -0.214349
     82 C29        -1.6190   -4.1700   -2.0690 c         1 MOL      0.633766
     83 N8         -0.7450   -4.9250   -2.7140 n         1 MOL     -0.767667
     84 O15        -1.5430   -2.9580   -2.0560 o         1 MOL     -0.523820
     85 H33        -4.1990   -3.2980    0.7280 hn        1 MOL      0.238958
     86 H34        -2.5110   -5.2510    2.0430 h1        1 MOL      0.041048
     87 H35        -3.3580   -6.2260    0.0170 hc        1 MOL     -0.014078
     88 H36        -1.6140   -5.9510   -0.0410 hc        1 MOL     -0.014078
     89 H37        -3.7500   -4.4990   -1.5560 hc        1 MOL      0.082650
     90 H38        -2.8700   -5.8460   -2.1710 hc        1 MOL      0.082650
     91 H39        -0.8650   -5.9290   -2.7320 hn        1 MOL      0.355249
     92 H40         0.0350   -4.4530   -3.1340 hn        1 MOL      0.355249
     93 N9         -0.3830   -3.5870    1.7430 n         1 MOL     -0.310204
     94 C30         0.6210   -2.5620    1.9580 c3        1 MOL      0.038371
     95 C31         1.8210   -3.0150    1.1620 c         1 MOL      0.393296
     96 O16         2.5050   -3.9570    1.5380 o         1 MOL     -0.545273
     97 C32         0.8440   -2.2540    3.4400 c3        1 MOL      0.033894
     98 C33         2.0660   -1.3170    3.7530 c3        1 MOL     -0.224923
     99 C34        -0.4760   -1.6370    3.9770 c3        1 MOL     -0.224923
    100 H41        -0.1670   -4.4540    2.2330 hn        1 MOL      0.260985
    101 H42         0.2930   -1.5940    1.5730 h1        1 MOL      0.125018
    102 H43         0.9650   -3.2240    3.9010 hc        1 MOL      0.002152
    103 H44         2.1330   -1.1880    4.8350 hc        1 MOL      0.065175
    104 H45         2.9920   -1.7880    3.4500 hc        1 MOL      0.065175
    105 H46         1.8850   -0.3680    3.2430 hc        1 MOL      0.065175
    106 H47        -1.3860   -2.2390    4.0490 hc        1 MOL      0.065175
    107 H48        -0.3780   -1.2300    4.9800 hc        1 MOL      0.065175
    108 H49        -0.6830   -0.7280    3.4040 hc        1 MOL      0.065175
    109 N10         2.1690   -2.3400    0.0150 n         1 MOL     -0.169411
    110 C35         3.3410   -2.5070   -0.8210 c3        1 MOL      0.058726
    111 C36         4.5160   -1.9960    0.0200 c         1 MOL      0.347286
    112 O17         4.4320   -1.1980    0.9760 o         1 MOL     -0.265547
    113 C37         3.1230   -1.7110   -2.0900 c3        1 MOL     -0.388044
    114 C38         2.2010   -2.3710   -3.0550 c         1 MOL      0.741497
    115 N11         0.9740   -1.9950   -3.0730 n         1 MOL     -0.787103
    116 O18         2.4710   -3.4210   -3.6010 o         1 MOL     -0.641268
    117 H50         1.6230   -1.5020   -0.1340 hn        1 MOL      0.123888
    118 H51         3.5330   -3.5720   -0.9510 h1        1 MOL      0.084559
    119 H52         4.0960   -1.5260   -2.5430 hc        1 MOL      0.113955
    120 H53         2.6930   -0.7460   -1.8100 hc        1 MOL      0.113955
    121 H54         0.6520   -1.3760   -2.3370 hn        1 MOL      0.382731
    122 H55         0.2860   -2.2500   -3.7760 hn        1 MOL      0.382731
    123 N12         5.7250   -2.3470   -0.4780 n         1 MOL     -0.519227
    124 C39         6.9680   -1.7420    0.0200 c3        1 MOL      0.246602
    125 C40         7.0600   -0.2560   -0.2630 c         1 MOL      0.620103
    126 O19         7.3790    0.5150    0.6250 o         1 MOL     -0.503867
    127 C41         8.1100   -2.5520   -0.5430 c3        1 MOL     -0.261144
    128 C42         9.4310   -1.8400   -0.1620 ca        1 MOL     -0.055606
    129 C43         9.9510   -2.0370    1.1300 ca        1 MOL     -0.056959
    130 C44        10.2130   -1.0880   -1.0950 ca        1 MOL     -0.056959
    131 C45        11.1900   -1.4830    1.4380 ca        1 MOL     -0.376808
    132 C46        11.5130   -0.5810   -0.8130 ca        1 MOL     -0.376808
    133 C47        11.9940   -0.7670    0.5220 ca        1 MOL      0.471181
    134 O20        13.2110   -0.2850    0.8320 oh        1 MOL     -0.543284
    135 H56         5.8220   -2.9460   -1.2860 hn        1 MOL      0.297358
    136 H57         6.8970   -1.9730    1.0870 h1        1 MOL      0.072622
    137 H58         8.0300   -2.7800   -1.5980 hc        1 MOL      0.087384
    138 H59         8.0740   -3.5010   -0.0100 hc        1 MOL      0.087384
    139 H60         9.4550   -2.7040    1.8220 ha        1 MOL      0.117015
    140 H61         9.7670   -1.0130   -2.0790 ha        1 MOL      0.117015
    141 H62        11.6380   -1.7110    2.3940 ha        1 MOL      0.166554
    142 H63        12.0240    0.0570   -1.5100 ha        1 MOL      0.166554
    143 H64        13.6670    0.0660    0.0590 ho        1 MOL      0.382140
    144 N13         6.6020    0.2010   -1.4440 n         1 MOL     -0.624625
    145 C48         6.2550    1.6300   -1.7400 c3        1 MOL      0.245130
    146 C49         5.3960    2.3670   -0.6930 c         1 MOL      0.044422
    147 O21         5.7190    3.5180   -0.3450 o         1 MOL     -0.488240
    148 C50         5.5500    1.5700   -3.0850 c3        1 MOL      0.024132
    149 C51         4.8100    2.8840   -3.5130 c3        1 MOL     -0.262822
    150 C52         4.1090    2.7060   -4.9180 c         1 MOL      0.743315
    151 O22         4.8590    2.2800   -5.7880 o         1 MOL     -0.736584
    152 O23         2.9230    3.0260   -5.1380 o         1 MOL     -0.736584
    153 H65         6.4740   -0.4480   -2.2180 hn        1 MOL      0.294470
    154 H66         7.1380    2.2490   -1.9100 h1        1 MOL      0.053709
    155 H67         4.7700    0.8040   -3.0580 hc        1 MOL     -0.010428
    156 H68         6.3370    1.2280   -3.7510 hc        1 MOL     -0.010428
    157 H69         5.5940    3.6410   -3.6200 hc        1 MOL      0.045894
    158 H70         4.0840    3.1900   -2.7620 hc        1 MOL      0.045894
    159 N14         4.4810    1.6830   -0.0440 n         1 MOL      0.368097
    160 C53         3.5690    2.1390    0.9770 c3        1 MOL     -0.089634
    161 C54         4.2640    2.1130    2.3780 c         1 MOL      0.361814
    162 O24         4.0300    3.0960    3.1190 o         1 MOL     -0.545621
    163 C55         2.2020    1.3400    0.8710 c3        1 MOL      0.101655
    164 C56         1.4330    1.7900   -0.4580 c3        1 MOL     -0.059463
    165 C57         0.0630    1.0240   -0.6280 c         1 MOL      0.721490
    166 O25        -1.0390    1.6100   -0.5080 o         1 MOL     -0.713910
    167 O26         0.1240   -0.2280   -0.8780 o         1 MOL     -0.713910
    168 H71         4.3320    0.7350   -0.3580 hn        1 MOL      0.018346
    169 H72         3.2380    3.1530    0.7600 h1        1 MOL      0.054236
    170 H73         1.5820    1.6660    1.7100 hc        1 MOL      0.039982
    171 H74         2.3290    0.2690    0.9440 hc        1 MOL      0.039982
    172 H75         2.0760    1.6460   -1.3190 hc        1 MOL     -0.005476
    173 H76         1.1880    2.8540   -0.3780 hc        1 MOL     -0.005476
    174 N15         5.1550    1.1500    2.6300 n         1 MOL      0.064967
    175 C58         5.9600    0.9510    3.8110 c3        1 MOL     -0.351990
    176 H77         5.3130    0.7190    4.6560 h1        1 MOL      0.114692
    177 H78         6.6510    0.1240    3.6450 h1        1 MOL      0.114692
    178 H79         6.5240    1.8590    4.0240 h1        1 MOL      0.114692
    179 H80         5.2310    0.4640    1.8860 hn        1 MOL     -0.108562
    180 Ca1        -2.5610   -0.5870   -1.1760 Ca        1 MOL      1.747016
    181 O27        -1.1510    0.3850   -3.4420 oh        1 MOL     -0.942104
    182 H81        -0.3310    0.6180   -3.8650 ho        1 MOL      0.433756
    183 H82        -1.8030    0.9430   -3.8510 ho        1 MOL      0.433756
@<TRIPOS>BOND
     1    1    2 1   
     2    1    4 1   
     3    1    5 1   
     4    1    6 1   
     5    2    3 2   
     6    2    7 1   
     7    7    8 1   
     8    7   15 1   
     9    8    9 1   
    10    8   11 1   
    11    8   16 1   
    12    9   10 2   
    13    9   19 1   
    14   11   12 1   
    15   11   17 1   
    16   11   18 1   
    17   12   13 1   
    18   12   14 1   
    19   19   20 1   
    20   19   27 1   
    21   20   21 1   
    22   20   23 1   
    23   20   28 1   
    24   21   22 2   
    25   21   38 1   
    26   23   24 1   
    27   23   25 1   
    28   23   29 1   
    29   24   26 1   
    30   24   30 1   
    31   24   31 1   
    32   25   32 1   
    33   25   33 1   
    34   25   34 1   
    35   26   35 1   
    36   26   36 1   
    37   26   37 1   
    38   38   39 1   
    39   38   46 1   
    40   39   40 1   
    41   39   42 1   
    42   39   47 1   
    43   40   41 2   
    44   40   50 1   
    45   42   43 1   
    46   42   48 1   
    47   42   49 1   
    48   43   44 1   
    49   43   45 1   
    50   50   51 1   
    51   50   54 1   
    52   51   52 1   
    53   51   55 1   
    54   51   56 1   
    55   52   53 2   
    56   52   57 1   
    57   57   58 1   
    58   57   65 1   
    59   58   59 1   
    60   58   61 1   
    61   58   66 1   
    62   59   60 2   
    63   59   69 1   
    64   61   62 1   
    65   61   67 1   
    66   61   68 1   
    67   62   63 1   
    68   62   64 1   
    69   69   70 1   
    70   69   73 1   
    71   70   71 1   
    72   70   74 1   
    73   70   75 1   
    74   71   72 2   
    75   71   76 1   
    76   76   77 1   
    77   76   85 1   
    78   77   78 1   
    79   77   80 1   
    80   77   86 1   
    81   78   79 2   
    82   78   93 1   
    83   80   81 1   
    84   80   87 1   
    85   80   88 1   
    86   81   82 1   
    87   81   89 1   
    88   81   90 1   
    89   82   83 1   
    90   82   84 2   
    91   83   91 1   
    92   83   92 1   
    93   93   94 1   
    94   93  100 1   
    95   94   95 1   
    96   94   97 1   
    97   94  101 1   
    98   95   96 2   
    99   95  109 1   
   100   97   98 1   
   101   97   99 1   
   102   97  102 1   
   103   98  103 1   
   104   98  104 1   
   105   98  105 1   
   106   99  106 1   
   107   99  107 1   
   108   99  108 1   
   109  109  110 1   
   110  109  117 1   
   111  110  111 1   
   112  110  113 1   
   113  110  118 1   
   114  111  112 2   
   115  111  123 1   
   116  113  114 1   
   117  113  119 1   
   118  113  120 1   
   119  114  115 1   
   120  114  116 2   
   121  115  121 1   
   122  115  122 1   
   123  123  124 1   
   124  123  135 1   
   125  124  125 1   
   126  124  127 1   
   127  124  136 1   
   128  125  126 2   
   129  125  144 1   
   130  127  128 1   
   131  127  137 1   
   132  127  138 1   
   133  128  129 ar  
   134  128  130 ar  
   135  129  131 ar  
   136  129  139 1   
   137  130  132 ar  
   138  130  140 1   
   139  131  133 ar  
   140  131  141 1   
   141  132  133 ar  
   142  132  142 1   
   143  133  134 1   
   144  134  143 1   
   145  144  145 1   
   146  144  153 1   
   147  145  146 1   
   148  145  148 1   
   149  145  154 1   
   150  146  147 2   
   151  146  159 1   
   152  148  149 1   
   153  148  155 1   
   154  148  156 1   
   155  149  150 1   
   156  149  157 1   
   157  149  158 1   
   158  150  151 1   
   159  150  152 1   
   160  159  160 1   
   161  159  168 1   
   162  160  161 1   
   163  160  163 1   
   164  160  169 1   
   165  161  162 2   
   166  161  174 1   
   167  163  164 1   
   168  163  170 1   
   169  163  171 1   
   170  164  165 1   
   171  164  172 1   
   172  164  173 1   
   173  165  166 1   
   174  165  167 1   
   175  174  175 1   
   176  174  179 1   
   177  175  176 1   
   178  175  177 1   
   179  175  178 1   
   180  181  182 1   
   181  181  183 1   
@<TRIPOS>SUBSTRUCTURE
     1 MOL         1 TEMP              0 ****  ****    0 ROOT
