@<TRIPOS>MOLECULE
MOL
  189   185     1     0     0
SMALL
resp


@<TRIPOS>ATOM
      1 C1          0.7180   -3.7530    5.7830 c3        1 MOL     -0.436113
      2 C2          1.0210   -3.2960    4.3440 c         1 MOL      0.795153
      3 O1          0.7610   -2.1630    4.0120 o         1 MOL     -0.609073
      4 H1          1.1160   -4.7560    5.9370 hc        1 MOL      0.104660
      5 H2          1.1850   -3.0650    6.4880 hc        1 MOL      0.104660
      6 H3         -0.3600   -3.7620    5.9430 hc        1 MOL      0.104660
      7 N1          1.7140   -4.1860    3.6210 n         1 MOL     -0.677627
      8 C3          2.3740   -3.8960    2.3550 c3        1 MOL      0.265878
      9 C4          2.2250   -5.0550    1.4120 c         1 MOL      0.572933
     10 O2          2.0570   -6.2030    1.8440 o         1 MOL     -0.624008
     11 C5          3.8650   -3.6400    2.6440 c3        1 MOL     -0.280431
     12 C6          4.5350   -2.9580    1.5080 c         1 MOL      0.725232
     13 O3          3.8350   -2.2260    0.7350 o         1 MOL     -0.657015
     14 O4          5.7660   -3.0440    1.4030 o         1 MOL     -0.657015
     15 H4          2.0830   -5.0140    4.0510 hn        1 MOL      0.343986
     16 H5          1.9870   -2.9570    1.9760 h1        1 MOL      0.100722
     17 H6          4.3020   -4.6150    2.8840 hc        1 MOL      0.040662
     18 H7          3.9480   -2.9640    3.4830 hc        1 MOL      0.040662
     19 N2          2.2090   -4.6860    0.1330 n         1 MOL     -0.196978
     20 C7          2.1380   -5.5930   -1.0530 c3        1 MOL     -0.022325
     21 C8          3.0660   -5.0160   -2.2240 c         1 MOL      0.372163
     22 O5          3.6380   -5.8010   -3.0310 o         1 MOL     -0.573323
     23 C9          0.6670   -5.7190   -1.6150 c3        1 MOL      0.161700
     24 C10        -0.1850   -6.4860   -0.5090 c3        1 MOL      0.053686
     25 C11         0.6020   -6.4840   -2.9450 c3        1 MOL     -0.324140
     26 C12        -1.6670   -6.3850   -0.8580 c3        1 MOL     -0.178626
     27 H8          2.1850   -3.6920   -0.0290 hn        1 MOL     -0.125508
     28 H9          2.4740   -6.5810   -0.7440 h1        1 MOL      0.078233
     29 H10         0.3510   -4.6890   -1.7970 hc        1 MOL      0.038530
     30 H11        -0.0700   -6.1300    0.5130 hc        1 MOL     -0.003745
     31 H12         0.1120   -7.5400   -0.4910 hc        1 MOL     -0.003745
     32 H13         1.3410   -6.0610   -3.6290 hc        1 MOL      0.074353
     33 H14         0.9540   -7.4800   -2.6820 hc        1 MOL      0.074353
     34 H15        -0.3600   -6.4830   -3.4510 hc        1 MOL      0.074353
     35 H16        -1.8840   -6.5910   -1.9090 hc        1 MOL      0.039692
     36 H17        -2.1860   -7.1140   -0.2320 hc        1 MOL      0.039692
     37 H18        -2.0300   -5.4070   -0.5550 hc        1 MOL      0.039692
     38 N3          3.2200   -3.7240   -2.3940 n         1 MOL     -0.134751
     39 C13         3.9950   -3.0520   -3.4690 c3        1 MOL     -0.019658
     40 C14         5.3010   -2.3980   -3.0220 c         1 MOL      0.400525
     41 O6          6.0980   -1.9980   -3.9060 o         1 MOL     -0.514909
     42 C15         3.1370   -2.0850   -4.2890 c3        1 MOL     -0.273398
     43 C16         2.5330   -0.9280   -3.4500 c         1 MOL      0.770585
     44 O7          3.0150   -0.8180   -2.3200 o         1 MOL     -0.711177
     45 O8          1.5890   -0.2690   -3.8980 o         1 MOL     -0.711177
     46 H19         2.6220   -3.0990   -1.8640 hn        1 MOL      0.312714
     47 H20         4.2790   -3.8590   -4.1520 h1        1 MOL      0.093892
     48 H21         2.2200   -2.6060   -4.5740 hc        1 MOL      0.066729
     49 H22         3.7420   -1.7730   -5.1390 hc        1 MOL      0.066729
     50 N4          5.5700   -2.2600   -1.6720 n         1 MOL     -0.203575
     51 C17         6.8690   -1.8100   -1.2550 c3        1 MOL     -0.068567
     52 C18         7.3300   -0.4100   -1.7560 c         1 MOL      0.415692
     53 O9          8.5150   -0.1610   -1.9760 o         1 MOL     -0.581859
     54 H23         4.8220   -2.4070   -1.0260 hn        1 MOL      0.133900
     55 H24         7.5760   -2.4980   -1.7120 h1        1 MOL      0.068752
     56 H25         7.0660   -1.8100   -0.1800 h1        1 MOL      0.068752
     57 N5          6.3860    0.5650   -1.8470 n         1 MOL     -0.125705
     58 C19         6.7300    1.9060   -2.3870 c3        1 MOL     -0.073901
     59 C20         7.1350    2.9510   -1.3870 c         1 MOL      0.476656
     60 O10         7.7180    3.9270   -1.8220 o         1 MOL     -0.548551
     61 C21         5.3290    2.4210   -3.1200 c3        1 MOL     -0.388720
     62 C22         3.9850    2.3350   -2.4640 c         1 MOL      0.788990
     63 O11         3.8280    1.8440   -1.2840 o         1 MOL     -0.678824
     64 O12         3.0300    2.9180   -2.9630 o         1 MOL     -0.678824
     65 H26         5.4110    0.4410   -1.6180 hn        1 MOL      0.205348
     66 H27         7.4760    1.8410   -3.1780 h1        1 MOL      0.126378
     67 H28         5.2680    1.8000   -4.0070 hc        1 MOL      0.111127
     68 H29         5.4510    3.4680   -3.4050 hc        1 MOL      0.111127
     69 N6          6.8240    2.7310   -0.1050 n         1 MOL     -0.263911
     70 C23         7.0010    3.6920    0.9770 c3        1 MOL     -0.070375
     71 C24         5.7870    4.4350    1.4680 c         1 MOL      0.586532
     72 O13         5.9670    5.3970    2.1680 o         1 MOL     -0.595217
     73 H30         6.3050    1.8960    0.1550 hn        1 MOL      0.159550
     74 H31         7.7310    4.4360    0.6630 h1        1 MOL      0.063989
     75 H32         7.4200    3.1460    1.8320 h1        1 MOL      0.063989
     76 N7          4.5600    3.9790    1.0980 n         1 MOL     -0.361022
     77 C25         3.2470    4.3790    1.6990 c3        1 MOL     -0.035237
     78 C26         2.4560    3.0790    1.9700 c         1 MOL      0.454287
     79 O14         2.8650    1.9910    1.5900 o         1 MOL     -0.416760
     80 C27         2.4060    5.3050    0.7870 c3        1 MOL      0.019573
     81 C28         3.1280    6.7040    0.6270 c3        1 MOL     -0.196918
     82 C29         2.2600    7.7520   -0.1370 c         1 MOL      0.585385
     83 N8          2.1200    7.7810   -1.4030 n         1 MOL     -0.746021
     84 O15         1.5280    8.4930    0.5090 o         1 MOL     -0.596539
     85 H33         4.5200    3.2550    0.3960 hn        1 MOL      0.246146
     86 H34         3.4270    4.8630    2.6660 h1        1 MOL      0.090229
     87 H35         1.3710    5.3760    1.1300 hc        1 MOL      0.059422
     88 H36         2.4460    4.8150   -0.1810 hc        1 MOL      0.059422
     89 H37         4.0330    6.5820    0.0340 hc        1 MOL      0.072070
     90 H38         3.3210    7.2400    1.5580 hc        1 MOL      0.072070
     91 H39         2.6120    7.0800   -1.9240 hn        1 MOL      0.364657
     92 H40         1.5260    8.5390   -1.7180 hn        1 MOL      0.364657
     93 N9          1.3520    3.2580    2.7030 n         1 MOL     -0.555818
     94 C30         0.2270    2.3220    2.7230 c3        1 MOL      0.111546
     95 C31        -1.0210    2.8000    1.9140 c         1 MOL      0.480787
     96 O16        -1.4140    3.9270    2.0590 o         1 MOL     -0.570276
     97 C32        -0.1910    1.9140    4.1620 c3        1 MOL      0.300250
     98 C33        -0.6590    3.1610    4.9480 c3        1 MOL     -0.315843
     99 C34        -1.2080    0.8130    4.2900 c3        1 MOL     -0.315843
    100 H41         1.1470    4.2210    2.9320 hn        1 MOL      0.307354
    101 H42         0.5740    1.4190    2.2300 h1        1 MOL      0.043882
    102 H43         0.6720    1.5310    4.7100 hc        1 MOL     -0.021557
    103 H44        -0.0470    4.0140    4.6420 hc        1 MOL      0.061683
    104 H45        -1.7000    3.3790    4.7380 hc        1 MOL      0.061683
    105 H46        -0.5670    2.9430    6.0090 hc        1 MOL      0.061683
    106 H47        -1.3150    0.4390    5.3040 hc        1 MOL      0.061683
    107 H48        -2.1870    1.1220    3.9490 hc        1 MOL      0.061683
    108 H49        -0.9270   -0.0520    3.6920 hc        1 MOL      0.061683
    109 N10        -1.5530    1.9750    1.0340 n         1 MOL     -0.357696
    110 C35        -2.7910    2.3540    0.2690 c3        1 MOL      0.262656
    111 C36        -4.0680    1.7620    0.9790 c         1 MOL      0.095611
    112 O17        -3.9690    0.8180    1.7720 o         1 MOL     -0.248425
    113 C37        -2.5560    2.0230   -1.2070 c3        1 MOL     -0.205848
    114 C38        -3.7110    2.4450   -2.1050 c         1 MOL      0.574784
    115 N11        -3.5290    3.3860   -2.9010 n         1 MOL     -0.692433
    116 O18        -4.7970    1.9020   -2.0320 o         1 MOL     -0.483177
    117 H50        -1.1760    1.0490    0.9640 hn        1 MOL      0.268859
    118 H51        -2.9170    3.4310    0.3150 h1        1 MOL      0.007848
    119 H52        -2.4440    0.9380   -1.2820 hc        1 MOL      0.089483
    120 H53        -1.6780    2.5810   -1.5260 hc        1 MOL      0.089483
    121 H54        -2.7000    3.9630   -2.8370 hn        1 MOL      0.347795
    122 H55        -4.3250    3.6520   -3.4700 hn        1 MOL      0.347795
    123 N12        -5.2480    2.3390    0.6960 n         1 MOL     -0.128154
    124 C39        -6.4410    1.8560    1.3140 c3        1 MOL      0.035811
    125 C40        -6.7840    0.3710    1.0380 c         1 MOL      0.421489
    126 O19        -7.3110   -0.2930    1.9120 o         1 MOL     -0.585797
    127 C41        -7.6630    2.7740    0.9480 c3        1 MOL     -0.345739
    128 C42        -8.1040    2.7650   -0.5030 ca        1 MOL      0.272706
    129 C43        -9.0580    1.8260   -0.9280 ca        1 MOL     -0.379426
    130 C44        -7.6250    3.7300   -1.4250 ca        1 MOL     -0.379426
    131 C45        -9.3120    1.7640   -2.3310 ca        1 MOL     -0.062561
    132 C46        -8.0850    3.7970   -2.7480 ca        1 MOL     -0.062561
    133 C47        -8.9690    2.8220   -3.1810 ca        1 MOL      0.170993
    134 O20        -9.3000    2.8660   -4.5110 oh        1 MOL     -0.470060
    135 H56        -5.3710    3.0360   -0.0280 hn        1 MOL      0.144384
    136 H57        -6.2360    1.9940    2.3770 h1        1 MOL      0.076723
    137 H58        -7.3710    3.7500    1.3200 hc        1 MOL      0.109284
    138 H59        -8.4870    2.3990    1.5630 hc        1 MOL      0.109284
    139 H60        -9.3390    1.0690   -0.2190 ha        1 MOL      0.183526
    140 H61        -6.7970    4.3670   -1.1360 ha        1 MOL      0.183526
    141 H62        -9.9930    1.0370   -2.7450 ha        1 MOL      0.101574
    142 H63        -7.9090    4.6290   -3.4150 ha        1 MOL      0.101574
    143 H64        -9.8420    2.0830   -4.6520 ho        1 MOL      0.373934
    144 N13        -6.2690   -0.2770    0.0060 n         1 MOL     -0.039270
    145 C48        -6.4620   -1.6800   -0.3170 c3        1 MOL     -0.122825
    146 C49        -5.4690   -2.5510    0.5840 c         1 MOL      0.362945
    147 O21        -5.7010   -3.7580    0.7110 o         1 MOL     -0.540010
    148 C50        -6.2030   -2.0850   -1.7570 c3        1 MOL      0.178399
    149 C51        -7.4730   -1.7350   -2.5720 c3        1 MOL     -0.199391
    150 C52        -7.2060   -1.9150   -4.1440 c         1 MOL      0.634381
    151 O22        -6.4720   -2.9010   -4.4880 o         1 MOL     -0.707057
    152 O23        -7.7250   -1.1210   -4.9940 o         1 MOL     -0.707057
    153 H65        -5.8680    0.2470   -0.7630 hn        1 MOL      0.193625
    154 H66        -7.4900   -1.9940   -0.1270 h1        1 MOL      0.098220
    155 H67        -5.9610   -3.1410   -1.8940 hc        1 MOL     -0.011762
    156 H68        -5.4480   -1.4290   -2.1820 hc        1 MOL     -0.011762
    157 H69        -7.6520   -0.6790   -2.3650 hc        1 MOL      0.010815
    158 H70        -8.3340   -2.3280   -2.2620 hc        1 MOL      0.010815
    159 N14        -4.4750   -2.0150    1.2480 n         1 MOL     -0.108930
    160 C53        -3.5280   -2.6720    2.1190 c3        1 MOL     -0.051736
    161 C54        -3.8830   -2.5580    3.5640 c         1 MOL      0.469400
    162 O24        -3.7490   -3.5330    4.3360 o         1 MOL     -0.568063
    163 C55        -2.1130   -2.0750    1.9090 c3        1 MOL     -0.005303
    164 C56        -1.5390   -2.2210    0.4890 c3        1 MOL     -0.026075
    165 C57        -0.2260   -1.5180    0.3150 c         1 MOL      0.784417
    166 O25        -0.0660   -0.3210    0.6430 o         1 MOL     -0.770294
    167 O26         0.7830   -2.1040   -0.1850 o         1 MOL     -0.770294
    168 H71        -4.3250   -1.0390    1.0400 hn        1 MOL      0.022164
    169 H72        -3.5140   -3.7200    1.8010 h1        1 MOL      0.088536
    170 H73        -1.5300   -2.5810    2.6770 hc        1 MOL      0.035002
    171 H74        -2.0040   -1.0760    2.3400 hc        1 MOL      0.035002
    172 H75        -2.2660   -1.7940   -0.1910 hc        1 MOL      0.014107
    173 H76        -1.4570   -3.2710    0.1990 hc        1 MOL      0.014107
    174 N15        -4.2740   -1.3320    4.0020 n         1 MOL     -0.133861
    175 C58        -4.6520   -0.9170    5.4260 c3        1 MOL     -0.134071
    176 H77        -5.3520   -0.0830    5.3860 h1        1 MOL      0.068324
    177 H78        -5.1190   -1.7590    5.9380 h1        1 MOL      0.068324
    178 H79        -3.7560   -0.6140    5.9670 h1        1 MOL      0.068324
    179 H80        -4.3310   -0.5780    3.3260 hn        1 MOL      0.109316
    180 Ca1         2.5240    0.0210    0.1710 Ca        1 MOL      1.754236
    181 O27         5.1830    0.0970    1.1450 oh        1 MOL     -0.991306
    182 H81         5.0300   -0.7880    1.4710 ho        1 MOL      0.449761
    183 H82         5.9800    0.3970    1.5840 ho        1 MOL      0.449761
    184 O28         2.3560   -0.6180    2.8020 oh        1 MOL     -0.991306
    185 H83         1.6120   -1.0940    3.1700 ho        1 MOL      0.449761
    186 H84         3.0230   -0.6620    3.4810 ho        1 MOL      0.449761
    187 O29         1.1250    1.6990   -1.5690 oh        1 MOL     -0.991306
    188 H85         0.7440    1.3040   -2.3600 ho        1 MOL      0.449761
    189 H86         1.9250    2.1120   -1.8750 ho        1 MOL      0.449761
@<TRIPOS>BOND
     1    1    2 1   
     2    1    4 1   
     3    1    5 1   
     4    1    6 1   
     5    2    3 2   
     6    2    7 1   
     7    7    8 1   
     8    7   15 1   
     9    8    9 1   
    10    8   11 1   
    11    8   16 1   
    12    9   10 2   
    13    9   19 1   
    14   11   12 1   
    15   11   17 1   
    16   11   18 1   
    17   12   13 1   
    18   12   14 1   
    19   19   20 1   
    20   19   27 1   
    21   20   21 1   
    22   20   23 1   
    23   20   28 1   
    24   21   22 2   
    25   21   38 1   
    26   23   24 1   
    27   23   25 1   
    28   23   29 1   
    29   24   26 1   
    30   24   30 1   
    31   24   31 1   
    32   25   32 1   
    33   25   33 1   
    34   25   34 1   
    35   26   35 1   
    36   26   36 1   
    37   26   37 1   
    38   38   39 1   
    39   38   46 1   
    40   39   40 1   
    41   39   42 1   
    42   39   47 1   
    43   40   41 2   
    44   40   50 1   
    45   42   43 1   
    46   42   48 1   
    47   42   49 1   
    48   43   44 1   
    49   43   45 1   
    50   50   51 1   
    51   50   54 1   
    52   51   52 1   
    53   51   55 1   
    54   51   56 1   
    55   52   53 2   
    56   52   57 1   
    57   57   58 1   
    58   57   65 1   
    59   58   59 1   
    60   58   61 1   
    61   58   66 1   
    62   59   60 2   
    63   59   69 1   
    64   61   62 1   
    65   61   67 1   
    66   61   68 1   
    67   62   63 1   
    68   62   64 1   
    69   69   70 1   
    70   69   73 1   
    71   70   71 1   
    72   70   74 1   
    73   70   75 1   
    74   71   72 2   
    75   71   76 1   
    76   76   77 1   
    77   76   85 1   
    78   77   78 1   
    79   77   80 1   
    80   77   86 1   
    81   78   79 2   
    82   78   93 1   
    83   80   81 1   
    84   80   87 1   
    85   80   88 1   
    86   81   82 1   
    87   81   89 1   
    88   81   90 1   
    89   82   83 1   
    90   82   84 2   
    91   83   91 1   
    92   83   92 1   
    93   93   94 1   
    94   93  100 1   
    95   94   95 1   
    96   94   97 1   
    97   94  101 1   
    98   95   96 2   
    99   95  109 1   
   100   97   98 1   
   101   97   99 1   
   102   97  102 1   
   103   98  103 1   
   104   98  104 1   
   105   98  105 1   
   106   99  106 1   
   107   99  107 1   
   108   99  108 1   
   109  109  110 1   
   110  109  117 1   
   111  110  111 1   
   112  110  113 1   
   113  110  118 1   
   114  111  112 2   
   115  111  123 1   
   116  113  114 1   
   117  113  119 1   
   118  113  120 1   
   119  114  115 1   
   120  114  116 2   
   121  115  121 1   
   122  115  122 1   
   123  123  124 1   
   124  123  135 1   
   125  124  125 1   
   126  124  127 1   
   127  124  136 1   
   128  125  126 2   
   129  125  144 1   
   130  127  128 1   
   131  127  137 1   
   132  127  138 1   
   133  128  129 ar  
   134  128  130 ar  
   135  129  131 ar  
   136  129  139 1   
   137  130  132 ar  
   138  130  140 1   
   139  131  133 ar  
   140  131  141 1   
   141  132  133 ar  
   142  132  142 1   
   143  133  134 1   
   144  134  143 1   
   145  144  145 1   
   146  144  153 1   
   147  145  146 1   
   148  145  148 1   
   149  145  154 1   
   150  146  147 2   
   151  146  159 1   
   152  148  149 1   
   153  148  155 1   
   154  148  156 1   
   155  149  150 1   
   156  149  157 1   
   157  149  158 1   
   158  150  151 1   
   159  150  152 1   
   160  159  160 1   
   161  159  168 1   
   162  160  161 1   
   163  160  163 1   
   164  160  169 1   
   165  161  162 2   
   166  161  174 1   
   167  163  164 1   
   168  163  170 1   
   169  163  171 1   
   170  164  165 1   
   171  164  172 1   
   172  164  173 1   
   173  165  166 1   
   174  165  167 1   
   175  174  175 1   
   176  174  179 1   
   177  175  176 1   
   178  175  177 1   
   179  175  178 1   
   180  181  182 1   
   181  181  183 1   
   182  184  185 1   
   183  184  186 1   
   184  187  188 1   
   185  187  189 1   
@<TRIPOS>SUBSTRUCTURE
     1 MOL         1 TEMP              0 ****  ****    0 ROOT
