@<TRIPOS>MOLECULE
MOL
  189   185     1     0     0
SMALL
resp


@<TRIPOS>ATOM
      1 C1          0.2630   -4.2400    5.6190 c3        1 MOL     -0.502111
      2 C2          0.9500   -3.4790    4.4730 c         1 MOL      0.773358
      3 O1          0.9450   -2.2080    4.3110 o         1 MOL     -0.641001
      4 H1         -0.4240   -3.5720    6.1390 hc        1 MOL      0.134804
      5 H2         -0.2900   -5.0870    5.2140 hc        1 MOL      0.134804
      6 H3          1.0170   -4.6010    6.3200 hc        1 MOL      0.134804
      7 N1          1.5890   -4.2840    3.6370 n         1 MOL     -0.658014
      8 C3          2.2710   -3.8340    2.4330 c3        1 MOL      0.395098
      9 C4          2.3870   -4.9890    1.4590 c         1 MOL      0.364036
     10 O2          3.0880   -6.0150    1.6320 o         1 MOL     -0.545986
     11 C5          3.7320   -3.4500    2.9030 c3        1 MOL     -0.528113
     12 C6          4.4670   -2.8960    1.7310 c         1 MOL      0.881047
     13 O3          5.6910   -2.6510    1.7050 o         1 MOL     -0.734666
     14 O4          3.8440   -2.6650    0.7000 o         1 MOL     -0.734666
     15 H4          1.7450   -5.2190    3.9940 hn        1 MOL      0.322558
     16 H5          1.7180   -3.0070    1.9830 h1        1 MOL      0.012365
     17 H6          4.2660   -4.3560    3.1880 hc        1 MOL      0.127547
     18 H7          3.6270   -2.8580    3.8210 hc        1 MOL      0.127547
     19 N2          1.6580   -4.7880    0.3430 n         1 MOL     -0.117685
     20 C7          1.5660   -5.7790   -0.7420 c3        1 MOL     -0.207635
     21 C8          2.4470   -5.5070   -1.9070 c         1 MOL      0.548847
     22 O5          2.4370   -6.2780   -2.8890 o         1 MOL     -0.598640
     23 C9          0.0570   -5.9690   -1.1590 c3        1 MOL      0.295570
     24 C10        -0.5130   -4.6470   -1.5990 c3        1 MOL     -0.038647
     25 C11        -0.6940   -6.6080    0.0400 c3        1 MOL     -0.296015
     26 C12        -2.0130   -4.6550   -1.9570 c3        1 MOL     -0.447303
     27 H8          1.1870   -3.9030    0.2330 hn        1 MOL      0.026265
     28 H9          1.9320   -6.7450   -0.3920 h1        1 MOL      0.117703
     29 H10         0.1180   -6.6930   -1.9770 hc        1 MOL     -0.047103
     30 H11         0.0280   -4.1990   -2.4340 hc        1 MOL      0.088573
     31 H12        -0.4510   -3.9810   -0.7330 hc        1 MOL      0.088573
     32 H13        -0.3160   -7.6140    0.2310 hc        1 MOL      0.057952
     33 H14        -0.6760   -5.9090    0.8810 hc        1 MOL      0.057952
     34 H15        -1.7670   -6.6650   -0.1320 hc        1 MOL      0.057952
     35 H16        -2.1700   -5.6160   -2.4360 hc        1 MOL      0.109221
     36 H17        -2.6130   -4.6460   -1.0500 hc        1 MOL      0.109221
     37 H18        -2.2350   -3.8230   -2.6210 hc        1 MOL      0.109221
     38 N3          3.2330   -4.4640   -1.8620 n         1 MOL     -0.462843
     39 C13         3.9270   -4.0350   -3.1150 c3        1 MOL      0.060559
     40 C14         5.3600   -3.3840   -2.8200 c         1 MOL      0.282028
     41 O6          6.2350   -3.2440   -3.6790 o         1 MOL     -0.533545
     42 C15         3.1210   -3.0660   -3.9630 c3        1 MOL     -0.240904
     43 C16         2.6060   -1.8690   -3.1630 c         1 MOL      0.737108
     44 O7          2.8450   -1.7330   -1.9600 o         1 MOL     -0.709483
     45 O8          1.8680   -1.0770   -3.8200 o         1 MOL     -0.709483
     46 H19         3.1540   -3.8470   -1.0680 hn        1 MOL      0.404893
     47 H20         4.1120   -4.9390   -3.6880 h1        1 MOL      0.100878
     48 H21         2.3490   -3.6700   -4.4510 hc        1 MOL      0.076653
     49 H22         3.6920   -2.7070   -4.8170 hc        1 MOL      0.076653
     50 N4          5.5530   -2.7840   -1.6660 n         1 MOL     -0.069829
     51 C17         6.8820   -2.2520   -1.2360 c3        1 MOL     -0.024771
     52 C18         7.2170   -0.8560   -1.8190 c         1 MOL      0.445534
     53 O9          8.3510   -0.6340   -2.2210 o         1 MOL     -0.591110
     54 H23         4.7920   -2.8860   -1.0000 hn        1 MOL      0.107008
     55 H24         7.7590   -2.8990   -1.2510 h1        1 MOL      0.057672
     56 H25         6.7250   -2.0510   -0.1730 h1        1 MOL      0.057672
     57 N5          6.2530    0.0300   -1.9030 n         1 MOL     -0.193669
     58 C19         6.4830    1.3680   -2.4120 c3        1 MOL     -0.003473
     59 C20         6.9190    2.2840   -1.2720 c         1 MOL      0.386265
     60 O10         7.3460    3.3640   -1.6050 o         1 MOL     -0.555325
     61 C21         5.3300    1.9590   -3.0850 c3        1 MOL     -0.211635
     62 C22         4.0060    1.9530   -2.2980 c         1 MOL      0.737289
     63 O11         3.8810    1.4500   -1.1740 o         1 MOL     -0.711624
     64 O12         3.0180    2.4750   -2.8760 o         1 MOL     -0.711624
     65 H26         5.3580   -0.1720   -1.4700 hn        1 MOL      0.170486
     66 H27         7.3320    1.3680   -3.0910 h1        1 MOL      0.124314
     67 H28         5.1370    1.5760   -4.0860 hc        1 MOL      0.067093
     68 H29         5.6360    2.9590   -3.4120 hc        1 MOL      0.067093
     69 N6          6.8180    1.9840   -0.0200 n         1 MOL     -0.160322
     70 C23         7.0540    2.8040    1.1600 c3        1 MOL     -0.303264
     71 C24         5.9460    3.7320    1.5580 c         1 MOL      0.580834
     72 O13         6.0850    4.5780    2.4100 o         1 MOL     -0.606089
     73 H30         6.3320    1.1140    0.1340 hn        1 MOL      0.181684
     74 H31         7.8450    3.5130    0.8990 h1        1 MOL      0.133213
     75 H32         7.2680    2.3490    2.1140 h1        1 MOL      0.133213
     76 N7          4.7890    3.6750    0.8550 n         1 MOL     -0.241644
     77 C25         3.5770    4.3910    1.2960 c3        1 MOL     -0.037852
     78 C26         2.4590    3.3450    1.5930 c         1 MOL      0.330713
     79 O14         2.3580    2.2660    1.0560 o         1 MOL     -0.418216
     80 C27         3.1600    5.3300    0.1490 c3        1 MOL      0.160934
     81 C28         4.1010    6.5120   -0.0100 c3        1 MOL     -0.302997
     82 C29         3.8080    7.4600   -1.2210 c         1 MOL      0.651371
     83 N8          3.2330    7.0340   -2.3210 n         1 MOL     -0.737131
     84 O15         3.9590    8.6860   -1.1840 o         1 MOL     -0.604880
     85 H33         4.7960    2.9200    0.1760 hn        1 MOL      0.199686
     86 H34         3.8240    4.9290    2.2200 h1        1 MOL      0.075887
     87 H35         2.1840    5.7770    0.3390 hc        1 MOL      0.005522
     88 H36         3.0450    4.8420   -0.8190 hc        1 MOL      0.005522
     89 H37         5.1060    6.1760   -0.2800 hc        1 MOL      0.095190
     90 H38         4.1160    7.1310    0.8820 hc        1 MOL      0.095190
     91 H39         3.0920    6.0610   -2.5560 hn        1 MOL      0.341877
     92 H40         3.2220    7.6580   -3.1160 hn        1 MOL      0.341877
     93 N9          1.4970    3.7190    2.4040 n         1 MOL     -0.287895
     94 C30         0.2560    2.9440    2.5650 c3        1 MOL      0.057019
     95 C31        -0.8710    3.4460    1.5860 c         1 MOL      0.334851
     96 O16        -1.3580    4.5930    1.7230 o         1 MOL     -0.562011
     97 C32        -0.1240    2.9320    4.0280 c3        1 MOL      0.196047
     98 C33        -1.5560    2.5950    4.3460 c3        1 MOL     -0.265411
     99 C34         0.8470    2.0970    4.8930 c3        1 MOL     -0.265411
    100 H41         1.5050    4.6210    2.8500 hn        1 MOL      0.220217
    101 H42         0.4430    1.8940    2.3130 h1        1 MOL      0.096284
    102 H43        -0.0570    3.9750    4.3240 hc        1 MOL     -0.019108
    103 H44        -2.2300    3.1030    3.6560 hc        1 MOL      0.057334
    104 H45        -1.7410    1.5220    4.4200 hc        1 MOL      0.057334
    105 H46        -1.8730    2.9730    5.3190 hc        1 MOL      0.057334
    106 H47         0.5220    2.3060    5.9080 hc        1 MOL      0.057334
    107 H48         0.6850    1.0480    4.6450 hc        1 MOL      0.057334
    108 H49         1.8680    2.4210    4.6840 hc        1 MOL      0.057334
    109 N10        -1.3390    2.5580    0.7130 n         1 MOL     -0.085324
    110 C35        -2.5470    2.7850   -0.1560 c3        1 MOL      0.088547
    111 C36        -3.9240    2.6170    0.5720 c         1 MOL      0.174369
    112 O17        -3.8880    2.0680    1.6670 o         1 MOL     -0.262688
    113 C37        -2.3520    1.8490   -1.3550 c3        1 MOL     -0.106398
    114 C38        -3.4150    1.6550   -2.3620 c         1 MOL      0.694490
    115 N11        -3.4040    2.4560   -3.4490 n         1 MOL     -0.935583
    116 O18        -4.2770    0.7560   -2.1760 o         1 MOL     -0.567441
    117 H50        -0.8910    1.6580    0.7490 hn        1 MOL      0.059042
    118 H51        -2.4770    3.7520   -0.6570 h1        1 MOL      0.039039
    119 H52        -1.9850    0.8450   -1.1110 hc        1 MOL      0.057516
    120 H53        -1.4770    2.2410   -1.8680 hc        1 MOL      0.057516
    121 H54        -2.6500    3.1290   -3.5060 hn        1 MOL      0.420166
    122 H55        -4.0370    2.1110   -4.1520 hn        1 MOL      0.420166
    123 N12        -5.0450    3.0820    0.0330 n         1 MOL     -0.140309
    124 C39        -6.4190    2.9250    0.5640 c3        1 MOL      0.044218
    125 C40        -6.7680    1.3550    0.7910 c         1 MOL      0.315293
    126 O19        -7.4590    0.9330    1.7350 o         1 MOL     -0.556975
    127 C41        -7.4270    3.5300   -0.4160 c3        1 MOL     -0.158664
    128 C42        -7.6680    2.8250   -1.7010 ca        1 MOL     -0.006940
    129 C43        -6.7900    3.1060   -2.8180 ca        1 MOL     -0.129930
    130 C44        -8.7320    1.8820   -1.8880 ca        1 MOL     -0.129930
    131 C45        -6.8930    2.5070   -4.0740 ca        1 MOL     -0.367371
    132 C46        -8.8210    1.2940   -3.1530 ca        1 MOL     -0.367371
    133 C47        -8.0150    1.6730   -4.2810 ca        1 MOL      0.457399
    134 O20        -8.1380    1.0270   -5.4920 oh        1 MOL     -0.584381
    135 H56        -4.9070    3.7620   -0.7110 hn        1 MOL      0.152233
    136 H57        -6.4790    3.4860    1.4900 h1        1 MOL      0.064641
    137 H58        -7.1770    4.5730   -0.5810 hc        1 MOL      0.066668
    138 H59        -8.3880    3.6090    0.1060 hc        1 MOL      0.066668
    139 H60        -5.9880    3.8020   -2.6470 ha        1 MOL      0.147930
    140 H61        -9.4060    1.5990   -1.0960 ha        1 MOL      0.147930
    141 H62        -6.1810    2.6870   -4.8690 ha        1 MOL      0.180255
    142 H63        -9.6590    0.6230   -3.2390 ha        1 MOL      0.180255
    143 H64        -8.4500    0.1250   -5.3360 ho        1 MOL      0.419841
    144 N13        -6.4240    0.4910   -0.1440 n         1 MOL      0.232740
    145 C48        -6.7310   -0.9000   -0.0500 c3        1 MOL     -0.085398
    146 C49        -5.8410   -1.6380    0.9620 c         1 MOL      0.409883
    147 O21        -6.1100   -2.7540    1.4420 o         1 MOL     -0.482120
    148 C50        -6.7130   -1.5110   -1.4200 c3        1 MOL      0.006077
    149 C51        -7.4130   -2.8900   -1.5690 c3        1 MOL     -0.136123
    150 C52        -8.9310   -2.9090   -1.3430 c         1 MOL      0.659185
    151 O22        -9.3320   -3.6050   -0.3210 o         1 MOL     -0.724646
    152 O23        -9.6230   -2.2800   -2.1720 o         1 MOL     -0.724646
    153 H65        -5.8660    0.7960   -0.9310 hn        1 MOL      0.080185
    154 H66        -7.7380   -1.0290    0.3490 h1        1 MOL      0.121537
    155 H67        -5.7460   -1.5030   -1.9160 hc        1 MOL      0.021239
    156 H68        -7.3240   -0.8240   -1.9950 hc        1 MOL      0.021239
    157 H69        -6.9850   -3.5960   -0.8580 hc        1 MOL     -0.000430
    158 H70        -7.2530   -3.2260   -2.5950 hc        1 MOL     -0.000430
    159 N14        -4.7350   -0.9720    1.3510 n         1 MOL     -0.223842
    160 C53        -3.8060   -1.3680    2.3800 c3        1 MOL      0.012260
    161 C54        -4.0310   -0.7110    3.8010 c         1 MOL      0.397115
    162 O24        -3.8140   -1.3550    4.8760 o         1 MOL     -0.562926
    163 C55        -2.3600   -0.8590    2.0320 c3        1 MOL     -0.333664
    164 C56        -1.7730   -1.4550    0.7890 c3        1 MOL     -0.107203
    165 C57        -0.3130   -1.1320    0.7340 c         1 MOL      0.765283
    166 O25         0.5320   -1.8790    0.1850 o         1 MOL     -0.721009
    167 O26         0.0770    0.0580    0.8860 o         1 MOL     -0.721009
    168 H71        -4.6900   -0.0380    0.9670 hn        1 MOL      0.028801
    169 H72        -3.8480   -2.4390    2.5600 h1        1 MOL      0.082196
    170 H73        -1.7250   -1.0250    2.8990 hc        1 MOL      0.147460
    171 H74        -2.4170    0.2340    1.9450 hc        1 MOL      0.147460
    172 H75        -2.3560   -1.2800   -0.1210 hc        1 MOL      0.094149
    173 H76        -1.8490   -2.5410    0.8370 hc        1 MOL      0.094149
    174 N15        -4.6170    0.4900    3.8550 n         1 MOL     -0.044938
    175 C58        -5.0010    1.2390    5.0440 c3        1 MOL     -0.094585
    176 H77        -5.0520    2.3010    4.8030 h1        1 MOL      0.046634
    177 H78        -5.9770    0.8980    5.3900 h1        1 MOL      0.046634
    178 H79        -4.2610    1.0800    5.8290 h1        1 MOL      0.046634
    179 H80        -4.7020    1.0250    2.9960 hn        1 MOL      0.071729
    180 Ca1         2.5240   -0.3310    0.2500 Ca        1 MOL      1.795405
    181 O27         2.4980   -0.3680    3.0240 oh        1 MOL     -0.920122
    182 H81         2.9700   -0.0040    3.7710 ho        1 MOL      0.427374
    183 H82         1.8300   -0.9340    3.4010 ho        1 MOL      0.427374
    184 O28         5.1020   -0.0870    1.1710 oh        1 MOL     -0.920122
    185 H83         5.1320    0.2810    2.0640 ho        1 MOL      0.427374
    186 H84         5.5360   -0.9430    1.2610 ho        1 MOL      0.427374
    187 O29         1.1520    0.8760   -2.0290 oh        1 MOL     -0.920122
    188 H85         1.3220    0.1690   -2.6470 ho        1 MOL      0.427374
    189 H86         1.5750    1.6440   -2.4190 ho        1 MOL      0.427374
@<TRIPOS>BOND
     1    1    2 1   
     2    1    4 1   
     3    1    5 1   
     4    1    6 1   
     5    2    3 2   
     6    2    7 1   
     7    7    8 1   
     8    7   15 1   
     9    8    9 1   
    10    8   11 1   
    11    8   16 1   
    12    9   10 2   
    13    9   19 1   
    14   11   12 1   
    15   11   17 1   
    16   11   18 1   
    17   12   13 1   
    18   12   14 1   
    19   19   20 1   
    20   19   27 1   
    21   20   21 1   
    22   20   23 1   
    23   20   28 1   
    24   21   22 2   
    25   21   38 1   
    26   23   24 1   
    27   23   25 1   
    28   23   29 1   
    29   24   26 1   
    30   24   30 1   
    31   24   31 1   
    32   25   32 1   
    33   25   33 1   
    34   25   34 1   
    35   26   35 1   
    36   26   36 1   
    37   26   37 1   
    38   38   39 1   
    39   38   46 1   
    40   39   40 1   
    41   39   42 1   
    42   39   47 1   
    43   40   41 2   
    44   40   50 1   
    45   42   43 1   
    46   42   48 1   
    47   42   49 1   
    48   43   44 1   
    49   43   45 1   
    50   50   51 1   
    51   50   54 1   
    52   51   52 1   
    53   51   55 1   
    54   51   56 1   
    55   52   53 2   
    56   52   57 1   
    57   57   58 1   
    58   57   65 1   
    59   58   59 1   
    60   58   61 1   
    61   58   66 1   
    62   59   60 2   
    63   59   69 1   
    64   61   62 1   
    65   61   67 1   
    66   61   68 1   
    67   62   63 1   
    68   62   64 1   
    69   69   70 1   
    70   69   73 1   
    71   70   71 1   
    72   70   74 1   
    73   70   75 1   
    74   71   72 2   
    75   71   76 1   
    76   76   77 1   
    77   76   85 1   
    78   77   78 1   
    79   77   80 1   
    80   77   86 1   
    81   78   79 2   
    82   78   93 1   
    83   80   81 1   
    84   80   87 1   
    85   80   88 1   
    86   81   82 1   
    87   81   89 1   
    88   81   90 1   
    89   82   83 1   
    90   82   84 2   
    91   83   91 1   
    92   83   92 1   
    93   93   94 1   
    94   93  100 1   
    95   94   95 1   
    96   94   97 1   
    97   94  101 1   
    98   95   96 2   
    99   95  109 1   
   100   97   98 1   
   101   97   99 1   
   102   97  102 1   
   103   98  103 1   
   104   98  104 1   
   105   98  105 1   
   106   99  106 1   
   107   99  107 1   
   108   99  108 1   
   109  109  110 1   
   110  109  117 1   
   111  110  111 1   
   112  110  113 1   
   113  110  118 1   
   114  111  112 2   
   115  111  123 1   
   116  113  114 1   
   117  113  119 1   
   118  113  120 1   
   119  114  115 1   
   120  114  116 2   
   121  115  121 1   
   122  115  122 1   
   123  123  124 1   
   124  123  135 1   
   125  124  125 1   
   126  124  127 1   
   127  124  136 1   
   128  125  126 2   
   129  125  144 1   
   130  127  128 1   
   131  127  137 1   
   132  127  138 1   
   133  128  129 ar  
   134  128  130 ar  
   135  129  131 ar  
   136  129  139 1   
   137  130  132 ar  
   138  130  140 1   
   139  131  133 ar  
   140  131  141 1   
   141  132  133 ar  
   142  132  142 1   
   143  133  134 1   
   144  134  143 1   
   145  144  145 1   
   146  144  153 1   
   147  145  146 1   
   148  145  148 1   
   149  145  154 1   
   150  146  147 2   
   151  146  159 1   
   152  148  149 1   
   153  148  155 1   
   154  148  156 1   
   155  149  150 1   
   156  149  157 1   
   157  149  158 1   
   158  150  151 1   
   159  150  152 1   
   160  159  160 1   
   161  159  168 1   
   162  160  161 1   
   163  160  163 1   
   164  160  169 1   
   165  161  162 2   
   166  161  174 1   
   167  163  164 1   
   168  163  170 1   
   169  163  171 1   
   170  164  165 1   
   171  164  172 1   
   172  164  173 1   
   173  165  166 1   
   174  165  167 1   
   175  174  175 1   
   176  174  179 1   
   177  175  176 1   
   178  175  177 1   
   179  175  178 1   
   180  181  182 1   
   181  181  183 1   
   182  184  185 1   
   183  184  186 1   
   184  187  188 1   
   185  187  189 1   
@<TRIPOS>SUBSTRUCTURE
     1 MOL         1 TEMP              0 ****  ****    0 ROOT
