@<TRIPOS>MOLECULE
MOL
  182   178     1     0     0
SMALL
resp


@<TRIPOS>ATOM
      1 C1         -1.7150   -2.7430    6.0290 c3        1 MOL     -0.315718
      2 C2         -1.1480   -2.5870    4.6190 c         1 MOL      0.697108
      3 O1         -1.9660   -2.5270    3.7090 o         1 MOL     -0.583914
      4 H1         -1.9770   -3.7870    6.2020 hc        1 MOL      0.079879
      5 H2         -0.9680   -2.4320    6.7590 hc        1 MOL      0.079879
      6 H3         -2.6050   -2.1240    6.1340 hc        1 MOL      0.079879
      7 N1          0.1570   -2.5620    4.4800 n         1 MOL     -0.605900
      8 C3          0.8460   -2.3790    3.1860 c3        1 MOL      0.136245
      9 C4          0.8360   -3.6130    2.3310 c         1 MOL      0.510734
     10 O2          1.6560   -4.5010    2.5270 o         1 MOL     -0.505528
     11 C5          2.2040   -1.6990    3.2690 c3        1 MOL     -0.066862
     12 C6          2.7780   -1.2650    2.0170 c         1 MOL      0.706044
     13 O3          3.8910   -0.7330    2.0020 o         1 MOL     -0.730564
     14 O4          2.2240   -1.5530    0.8860 o         1 MOL     -0.730564
     15 H4          0.6670   -2.7260    5.3320 hn        1 MOL      0.340048
     16 H5          0.2520   -1.6580    2.6210 h1        1 MOL      0.036126
     17 H6          2.8900   -2.4250    3.7100 hc        1 MOL      0.029958
     18 H7          1.9960   -0.8420    3.9140 hc        1 MOL      0.029958
     19 N2         -0.0690   -3.6690    1.3360 n         1 MOL     -0.153344
     20 C7         -0.4930   -4.8410    0.6500 c3        1 MOL     -0.158215
     21 C8          0.5530   -5.5370   -0.2120 c         1 MOL      0.412258
     22 O5          0.5290   -6.7700   -0.2650 o         1 MOL     -0.532062
     23 C9         -1.8190   -4.4020   -0.0640 c3        1 MOL     -0.045902
     24 C10        -2.6570   -5.5320   -0.6960 c3        1 MOL     -0.258442
     25 C11        -3.9410   -5.0760   -1.3690 c3        1 MOL      0.104189
     26 C12        -4.8720   -6.2050   -1.8900 c3        1 MOL     -0.010334
     27 N3         -6.0010   -5.6260   -2.8040 n4        1 MOL     -0.405527
     28 H8         -0.6760   -2.8640    1.3150 hn        1 MOL      0.092666
     29 H9         -0.8150   -5.5680    1.3960 h1        1 MOL      0.120868
     30 H10        -1.5230   -3.6610   -0.8100 hc        1 MOL      0.127005
     31 H11        -2.3740   -3.8600    0.6930 hc        1 MOL      0.127005
     32 H12        -2.9620   -6.1820    0.1200 hc        1 MOL      0.087306
     33 H13        -2.0930   -6.0240   -1.4920 hc        1 MOL      0.087306
     34 H14        -3.6330   -4.3560   -2.1330 hc        1 MOL      0.006098
     35 H15        -4.5200   -4.4700   -0.6740 hc        1 MOL      0.006098
     36 H16        -5.3120   -6.7100   -1.0320 hx        1 MOL      0.109102
     37 H17        -4.2660   -6.9500   -2.4110 hx        1 MOL      0.109102
     38 H18        -5.6250   -5.1320   -3.6050 hn        1 MOL      0.339538
     39 H19        -6.6960   -6.3210   -3.0540 hn        1 MOL      0.339538
     40 H20        -6.4880   -4.9450   -2.2280 hn        1 MOL      0.339538
     41 N4          1.4370   -4.7610   -0.8380 n         1 MOL     -0.165150
     42 C13         2.6700   -5.3730   -1.4400 c3        1 MOL      0.120633
     43 C14         3.9720   -5.1520   -0.6150 c         1 MOL      0.506233
     44 O6          4.9340   -5.9170   -0.7550 o         1 MOL     -0.549745
     45 C15         2.8690   -4.7850   -2.8720 c3        1 MOL     -0.152896
     46 C16         3.0100   -3.2920   -2.9630 c         1 MOL      0.708421
     47 O7          3.5360   -2.8400   -4.0260 o         1 MOL     -0.681362
     48 O8          2.7450   -2.5320   -1.9580 o         1 MOL     -0.681362
     49 H21         1.5060   -3.7650   -0.7030 hn        1 MOL      0.069680
     50 H22         2.6050   -6.4460   -1.5290 h1        1 MOL      0.055943
     51 H23         1.9710   -5.0680   -3.4230 hc        1 MOL      0.028658
     52 H24         3.7140   -5.2620   -3.3620 hc        1 MOL      0.028658
     53 N5          3.8850   -4.2240    0.4020 n         1 MOL     -0.128423
     54 C17         5.0690   -3.7560    1.2570 c3        1 MOL     -0.203982
     55 C18         6.0050   -2.7440    0.5800 c         1 MOL      0.609778
     56 O9          7.1490   -2.7230    0.9450 o         1 MOL     -0.582381
     57 H25         3.0300   -3.7100    0.5460 hn        1 MOL     -0.006264
     58 H26         5.7230   -4.5730    1.5670 h1        1 MOL      0.123213
     59 H27         4.7510   -3.3290    2.2100 h1        1 MOL      0.123213
     60 N6          5.5670   -1.8620   -0.3420 n         1 MOL     -0.293188
     61 C19         6.4790   -0.8930   -0.9650 c3        1 MOL      0.000164
     62 C20         6.7390    0.4090   -0.1690 c         1 MOL      0.343042
     63 O10         7.5900    1.1440   -0.6270 o         1 MOL     -0.502661
     64 C21         5.8990   -0.5040   -2.3860 c3        1 MOL     -0.323759
     65 C22         4.8030    0.5810   -2.3710 c         1 MOL      0.564495
     66 N7          5.1390    1.7550   -2.9220 n         1 MOL     -0.645044
     67 O11         3.7190    0.4040   -1.8810 o         1 MOL     -0.465178
     68 H28         4.6070   -1.9830   -0.6360 hn        1 MOL      0.152320
     69 H29         7.4610   -1.3730   -1.0330 h1        1 MOL      0.130663
     70 H30         5.5320   -1.3440   -2.9820 hc        1 MOL      0.132534
     71 H31         6.7320   -0.1530   -2.9840 hc        1 MOL      0.132534
     72 H32         6.0380    1.8240   -3.3810 hn        1 MOL      0.330806
     73 H33         4.4150    2.4280   -3.1320 hn        1 MOL      0.330806
     74 N8          6.0530    0.6090    0.9610 n         1 MOL     -0.120391
     75 C23         6.2200    1.7130    1.7880 c3        1 MOL     -0.153573
     76 C24         5.0250    2.6330    1.8920 c         1 MOL      0.454439
     77 O12         4.9010    3.4120    2.8110 o         1 MOL     -0.590485
     78 H34         5.4390   -0.1130    1.2840 hn        1 MOL      0.279658
     79 H35         7.0530    2.3000    1.4160 h1        1 MOL      0.092995
     80 H36         6.5160    1.2480    2.7360 h1        1 MOL      0.092995
     81 N9          4.1970    2.6570    0.8830 n         1 MOL      0.178823
     82 C25         3.0510    3.5280    0.6660 c3        1 MOL      0.073240
     83 C26         1.6620    2.7780    0.6310 c         1 MOL      0.402389
     84 O13         1.6280    1.5440    0.4540 o         1 MOL     -0.741993
     85 C27         3.1700    4.2980   -0.6470 c3        1 MOL     -0.025690
     86 C28         4.4470    5.1530   -0.6970 ca        1 MOL     -0.113880
     87 C29         5.7030    4.6300   -0.8590 ca        1 MOL     -0.058202
     88 C30         4.2890    6.5030   -0.3400 ca        1 MOL     -0.058202
     89 C31         6.7700    5.4530   -0.7480 ca        1 MOL     -0.309848
     90 C32         5.3850    7.3460   -0.2180 ca        1 MOL     -0.309848
     91 C33         6.6680    6.8190   -0.3230 ca        1 MOL      0.396799
     92 O14         7.8110    7.4960   -0.0650 oh        1 MOL     -0.494145
     93 H37         4.2770    1.9210    0.2110 hn        1 MOL      0.006408
     94 H38         2.9240    4.1860    1.5260 h1        1 MOL      0.021194
     95 H39         2.3220    4.9730   -0.7870 hc        1 MOL      0.017588
     96 H40         3.2470    3.6920   -1.5540 hc        1 MOL      0.017588
     97 H41         5.7260    3.5730   -1.1000 ha        1 MOL      0.091342
     98 H42         3.3250    6.8840   -0.0350 ha        1 MOL      0.091342
     99 H43         7.7480    5.0150   -0.8360 ha        1 MOL      0.141469
    100 H44         5.2840    8.3550    0.1700 ha        1 MOL      0.141469
    101 H45         7.7520    8.4200    0.1780 ho        1 MOL      0.372472
    102 N10         0.6070    3.5440    0.8820 n         1 MOL     -0.419701
    103 C34        -0.7840    3.0150    1.0040 c3        1 MOL     -0.122217
    104 C35        -1.8410    3.8680    0.2630 c         1 MOL      0.474507
    105 O15        -1.9310    5.0120    0.5240 o         1 MOL     -0.514653
    106 C36        -1.1230    2.8490    2.4740 c3        1 MOL      0.141051
    107 C37        -0.1890    1.7660    3.0050 c3        1 MOL      0.207011
    108 C38        -2.5890    2.4900    2.7330 c3        1 MOL     -0.266947
    109 C39        -0.8200    0.8740    4.0650 c3        1 MOL     -0.350030
    110 H46         0.8220    4.4880    1.1620 hn        1 MOL      0.321399
    111 H47        -0.8330    2.0200    0.5510 h1        1 MOL      0.265425
    112 H48        -0.9550    3.8010    2.9900 hc        1 MOL     -0.000920
    113 H49         0.6730    2.2870    3.4280 hc        1 MOL     -0.003599
    114 H50         0.0680    1.0590    2.2240 hc        1 MOL     -0.003599
    115 H51        -2.8000    2.3610    3.7910 hc        1 MOL      0.057244
    116 H52        -3.2740    3.2310    2.3240 hc        1 MOL      0.057244
    117 H53        -2.8570    1.5120    2.3220 hc        1 MOL      0.057244
    118 H54        -0.0160    0.2250    4.4200 hc        1 MOL      0.074459
    119 H55        -1.2310    1.5410    4.8290 hc        1 MOL      0.074459
    120 H56        -1.5640    0.2080    3.6260 hc        1 MOL      0.074459
    121 N11        -2.6620    3.2800   -0.6000 n         1 MOL     -0.239669
    122 C40        -3.8370    3.9390   -1.0910 c3        1 MOL      0.019419
    123 C41        -5.0930    3.5740   -0.3080 c         1 MOL      0.600150
    124 O16        -5.0750    2.6230    0.4580 o         1 MOL     -0.457899
    125 C42        -4.1420    3.5890   -2.6200 c3        1 MOL      0.023623
    126 O17        -4.3220    2.2150   -2.8080 oh        1 MOL     -0.527642
    127 H57        -2.5350    2.2990   -0.7980 hn        1 MOL      0.163857
    128 H58        -3.6620    5.0090   -1.0480 h1        1 MOL      0.054521
    129 H59        -3.2480    3.8670   -3.1890 h1        1 MOL      0.048934
    130 H60        -5.0080    4.1690   -2.9300 h1        1 MOL      0.048934
    131 H61        -3.6100    1.9310   -3.3840 ho        1 MOL      0.418640
    132 N12        -6.1560    4.3070   -0.6440 n         1 MOL     -0.505405
    133 C43        -7.5580    4.1450   -0.1570 c3        1 MOL      0.109048
    134 C44        -8.1790    2.8240   -0.5280 c         1 MOL      0.459035
    135 O18        -8.7320    2.0900    0.3500 o         1 MOL     -0.499542
    136 C45        -8.3460    5.2800   -0.7260 c3        1 MOL     -0.281370
    137 H62        -6.0350    4.9850   -1.3750 hn        1 MOL      0.294371
    138 H63        -7.6430    4.0900    0.9270 h1        1 MOL      0.099872
    139 H64        -8.3830    5.0950   -1.8000 hc        1 MOL      0.092407
    140 H65        -9.3640    5.3610   -0.3410 hc        1 MOL      0.092407
    141 H66        -7.9070    6.2450   -0.4640 hc        1 MOL      0.092407
    142 N13        -7.8180    2.2860   -1.6770 n         1 MOL     -0.417985
    143 C46        -7.9500    0.8650   -1.9460 c3        1 MOL      0.116886
    144 C47        -7.3000   -0.0650   -0.9800 c         1 MOL      0.334647
    145 O19        -7.8620   -1.1560   -0.6320 o         1 MOL     -0.559907
    146 C48        -7.3030    0.4590   -3.3650 c3        1 MOL     -0.426521
    147 H67        -7.1700    2.8240   -2.2310 hn        1 MOL      0.333366
    148 H68        -9.0130    0.6300   -1.9570 h1        1 MOL      0.109198
    149 H69        -7.5820    1.1290   -4.1770 hc        1 MOL      0.119359
    150 H70        -6.2450    0.2020   -3.3490 hc        1 MOL      0.119359
    151 H71        -7.6550   -0.5580   -3.5570 hc        1 MOL      0.119359
    152 N14        -6.0630    0.1620   -0.4980 n         1 MOL      0.146856
    153 C49        -5.3490   -0.7530    0.3870 c3        1 MOL     -0.243920
    154 C50        -5.7400   -0.6220    1.8170 c         1 MOL      0.610700
    155 O20        -5.5080   -1.4350    2.6200 o         1 MOL     -0.554857
    156 C51        -3.8280   -0.4970    0.3470 c3        1 MOL     -0.136930
    157 C52        -3.1060   -0.8510   -0.9500 c3        1 MOL      0.035073
    158 C53        -1.6980   -0.1860   -0.7790 c         1 MOL      0.268434
    159 O21        -0.8640   -0.7140   -0.0030 o         1 MOL     -0.574027
    160 O22        -1.2430    0.5650   -1.6560 o         1 MOL     -0.574027
    161 H72        -5.6970    1.0850   -0.6980 hn        1 MOL     -0.152918
    162 H73        -5.6110   -1.7190   -0.0510 h1        1 MOL      0.095014
    163 H74        -3.3810   -1.0440    1.1860 hc        1 MOL      0.138192
    164 H75        -3.6930    0.5520    0.6500 hc        1 MOL      0.138192
    165 H76        -3.5730   -0.2970   -1.7580 hc        1 MOL     -0.018331
    166 H77        -3.0300   -1.8760   -1.2980 hc        1 MOL     -0.018331
    167 N15        -6.4890    0.4070    2.2170 n         1 MOL     -0.202479
    168 C54        -7.3400    0.5240    3.4120 c3        1 MOL     -0.216946
    169 H78        -7.5380   -0.4690    3.8160 h1        1 MOL      0.097889
    170 H79        -6.8300    1.1270    4.1640 h1        1 MOL      0.097889
    171 H80        -8.2830    1.0000    3.1420 h1        1 MOL      0.097889
    172 H81        -6.5180    1.2340    1.6340 hn        1 MOL      0.197067
    173 Ca1         1.2710   -0.4630   -1.2750 Ca        1 MOL      1.825045
    174 O23         1.1070    1.8100   -2.7470 oh        1 MOL     -0.856360
    175 H82         0.4300    2.4740   -2.8640 ho        1 MOL      0.399994
    176 H83         1.9010    2.2010   -3.0900 ho        1 MOL      0.399994
    177 O24        -0.3310   -2.2460   -2.6680 oh        1 MOL     -0.856360
    178 H84        -0.7330   -3.0790   -2.9330 ho        1 MOL      0.399994
    179 H85        -0.9690   -1.5790   -2.9180 ho        1 MOL      0.399994
    180 O25         1.6930   -0.8620   -4.2860 oh        1 MOL     -0.856360
    181 H86         0.9020   -1.4010   -4.3090 ho        1 MOL      0.399994
    182 H87         2.4080   -1.4900   -4.1720 ho        1 MOL      0.399994
@<TRIPOS>BOND
     1    1    2 1   
     2    1    4 1   
     3    1    5 1   
     4    1    6 1   
     5    2    3 2   
     6    2    7 1   
     7    7    8 1   
     8    7   15 1   
     9    8    9 1   
    10    8   11 1   
    11    8   16 1   
    12    9   10 2   
    13    9   19 1   
    14   11   12 1   
    15   11   17 1   
    16   11   18 1   
    17   12   13 1   
    18   12   14 1   
    19   19   20 1   
    20   19   28 1   
    21   20   21 1   
    22   20   23 1   
    23   20   29 1   
    24   21   22 2   
    25   21   41 1   
    26   23   24 1   
    27   23   30 1   
    28   23   31 1   
    29   24   25 1   
    30   24   32 1   
    31   24   33 1   
    32   25   26 1   
    33   25   34 1   
    34   25   35 1   
    35   26   27 1   
    36   26   36 1   
    37   26   37 1   
    38   27   38 1   
    39   27   39 1   
    40   27   40 1   
    41   41   42 1   
    42   41   49 1   
    43   42   43 1   
    44   42   45 1   
    45   42   50 1   
    46   43   44 2   
    47   43   53 1   
    48   45   46 1   
    49   45   51 1   
    50   45   52 1   
    51   46   47 1   
    52   46   48 1   
    53   53   54 1   
    54   53   57 1   
    55   54   55 1   
    56   54   58 1   
    57   54   59 1   
    58   55   56 2   
    59   55   60 1   
    60   60   61 1   
    61   60   68 1   
    62   61   62 1   
    63   61   64 1   
    64   61   69 1   
    65   62   63 2   
    66   62   74 1   
    67   64   65 1   
    68   64   70 1   
    69   64   71 1   
    70   65   66 1   
    71   65   67 2   
    72   66   72 1   
    73   66   73 1   
    74   74   75 1   
    75   74   78 1   
    76   75   76 1   
    77   75   79 1   
    78   75   80 1   
    79   76   77 2   
    80   76   81 1   
    81   81   82 1   
    82   81   93 1   
    83   82   83 1   
    84   82   85 1   
    85   82   94 1   
    86   83   84 2   
    87   83  102 1   
    88   85   86 1   
    89   85   95 1   
    90   85   96 1   
    91   86   87 ar  
    92   86   88 ar  
    93   87   89 ar  
    94   87   97 1   
    95   88   90 ar  
    96   88   98 1   
    97   89   91 ar  
    98   89   99 1   
    99   90   91 ar  
   100   90  100 1   
   101   91   92 1   
   102   92  101 1   
   103  102  103 1   
   104  102  110 1   
   105  103  104 1   
   106  103  106 1   
   107  103  111 1   
   108  104  105 2   
   109  104  121 1   
   110  106  107 1   
   111  106  108 1   
   112  106  112 1   
   113  107  109 1   
   114  107  113 1   
   115  107  114 1   
   116  108  115 1   
   117  108  116 1   
   118  108  117 1   
   119  109  118 1   
   120  109  119 1   
   121  109  120 1   
   122  121  122 1   
   123  121  127 1   
   124  122  123 1   
   125  122  125 1   
   126  122  128 1   
   127  123  124 2   
   128  123  132 1   
   129  125  126 1   
   130  125  129 1   
   131  125  130 1   
   132  126  131 1   
   133  132  133 1   
   134  132  137 1   
   135  133  134 1   
   136  133  136 1   
   137  133  138 1   
   138  134  135 2   
   139  134  142 1   
   140  136  139 1   
   141  136  140 1   
   142  136  141 1   
   143  142  143 1   
   144  142  147 1   
   145  143  144 1   
   146  143  146 1   
   147  143  148 1   
   148  144  145 2   
   149  144  152 1   
   150  146  149 1   
   151  146  150 1   
   152  146  151 1   
   153  152  153 1   
   154  152  161 1   
   155  153  154 1   
   156  153  156 1   
   157  153  162 1   
   158  154  155 2   
   159  154  167 1   
   160  156  157 1   
   161  156  163 1   
   162  156  164 1   
   163  157  158 1   
   164  157  165 1   
   165  157  166 1   
   166  158  159 1   
   167  158  160 1   
   168  167  168 1   
   169  167  172 1   
   170  168  169 1   
   171  168  170 1   
   172  168  171 1   
   173  174  175 1   
   174  174  176 1   
   175  177  178 1   
   176  177  179 1   
   177  180  181 1   
   178  180  182 1   
@<TRIPOS>SUBSTRUCTURE
     1 MOL         1 TEMP              0 ****  ****    0 ROOT
