@<TRIPOS>MOLECULE
MOL
  186   183     1     0     0
SMALL
resp


@<TRIPOS>ATOM
      1 C1          0.5580   -2.7830    5.8890 c3        1 MOL     -0.388038
      2 C2          1.0810   -2.5350    4.4460 c         1 MOL      0.682467
      3 O1          0.3610   -2.7310    3.4390 o         1 MOL     -0.551863
      4 H1          0.0840   -3.7630    5.9400 hc        1 MOL      0.096463
      5 H2          1.3930   -2.7460    6.5890 hc        1 MOL      0.096463
      6 H3         -0.1690   -2.0140    6.1490 hc        1 MOL      0.096463
      7 N1          2.3700   -2.1960    4.3750 n         1 MOL     -0.610029
      8 C3          3.0970   -1.9480    3.1080 c3        1 MOL      0.424167
      9 C4          3.7540   -3.2230    2.5710 c         1 MOL      0.468157
     10 O2          4.6330   -3.6950    3.2750 o         1 MOL     -0.576024
     11 C5          4.0140   -0.8090    3.0380 c3        1 MOL     -0.560167
     12 C6          4.7750   -0.6460    1.6650 c         1 MOL      0.851208
     13 O3          4.0890   -0.6660    0.6490 o         1 MOL     -0.704241
     14 O4          5.9610   -0.2640    1.6470 o         1 MOL     -0.704241
     15 H4          2.8370   -1.9110    5.2250 hn        1 MOL      0.314650
     16 H5          2.3310   -1.6920    2.3730 h1        1 MOL     -0.014824
     17 H6          4.8030   -0.9750    3.7710 hc        1 MOL      0.114611
     18 H7          3.4580    0.1090    3.2580 hc        1 MOL      0.114611
     19 N2          3.3300   -3.7250    1.3940 n         1 MOL     -0.168133
     20 C7          3.6140   -5.0910    1.0060 c3        1 MOL     -0.083965
     21 C8          4.0610   -5.2100   -0.4650 c         1 MOL      0.318399
     22 O5          4.4930   -6.2020   -0.9900 o         1 MOL     -0.561592
     23 C9          2.3730   -6.0440    1.1460 c3        1 MOL      0.223640
     24 C10         1.0320   -5.4780    0.5870 c3        1 MOL      0.232006
     25 C11         2.0940   -6.5680    2.6040 c3        1 MOL     -0.366609
     26 C12         0.1840   -6.6010   -0.1680 c3        1 MOL     -0.420287
     27 H8          2.6710   -3.1160    0.9300 hn        1 MOL      0.047774
     28 H9          4.4340   -5.4770    1.5990 h1        1 MOL      0.111630
     29 H10         2.5790   -7.0060    0.6730 hc        1 MOL     -0.016512
     30 H11         1.2540   -4.6720   -0.1070 hc        1 MOL      0.012673
     31 H12         0.5140   -4.9900    1.4160 hc        1 MOL      0.012673
     32 H13         3.0540   -7.0010    2.9050 hc        1 MOL      0.064366
     33 H14         1.8370   -5.7380    3.2540 hc        1 MOL      0.064366
     34 H15         1.3050   -7.3180    2.5790 hc        1 MOL      0.064366
     35 H16        -0.3010   -7.1400    0.6410 hc        1 MOL      0.092899
     36 H17        -0.5350   -6.1360   -0.8510 hc        1 MOL      0.092899
     37 H18         0.9110   -7.1960   -0.7210 hc        1 MOL      0.092899
     38 N3          4.0570   -4.1030   -1.1790 n         1 MOL     -0.070475
     39 C13         4.6260   -3.8300   -2.5590 c3        1 MOL     -0.000982
     40 C14         5.8450   -2.8900   -2.4600 c         1 MOL      0.426171
     41 O6          6.5850   -2.6980   -3.4490 o         1 MOL     -0.540666
     42 C15         3.5480   -3.4810   -3.6180 c3        1 MOL     -0.234947
     43 C16         2.7600   -2.3060   -3.3900 c         1 MOL      0.834621
     44 O7          1.7870   -2.0420   -4.1270 o         1 MOL     -0.718283
     45 O8          2.9650   -1.6750   -2.3440 o         1 MOL     -0.718283
     46 H19         3.5970   -3.2840   -0.8160 hn        1 MOL      0.094346
     47 H20         4.9990   -4.7860   -2.9410 h1        1 MOL      0.097037
     48 H21         2.8640   -4.2870   -3.9060 hc        1 MOL      0.062685
     49 H22         4.0770   -3.3140   -4.5550 hc        1 MOL      0.062685
     50 N4          6.2980   -2.4400   -1.2780 n         1 MOL     -0.233040
     51 C17         7.6580   -1.8950   -1.1200 c3        1 MOL     -0.182863
     52 C18         7.8490   -0.4200   -1.5530 c         1 MOL      0.484492
     53 O9          9.0110   -0.0080   -1.7300 o         1 MOL     -0.606034
     54 H23         5.7560   -2.6930   -0.4650 hn        1 MOL      0.198735
     55 H24         8.3810   -2.5030   -1.6740 h1        1 MOL      0.107552
     56 H25         7.9420   -1.9740   -0.0730 h1        1 MOL      0.107552
     57 N5          6.8190    0.3530   -1.7180 n         1 MOL     -0.084422
     58 C19         6.8540    1.8210   -1.9960 c3        1 MOL     -0.085333
     59 C20         6.9550    2.8230   -0.8080 c         1 MOL      0.457373
     60 O10         7.1720    4.0390   -0.9540 o         1 MOL     -0.548953
     61 C21         5.6850    2.2290   -2.9100 c3        1 MOL     -0.202256
     62 C22         4.2800    1.9090   -2.3510 c         1 MOL      0.710735
     63 O11         3.4780    1.4590   -3.1940 o         1 MOL     -0.702911
     64 O12         4.0740    1.9830   -1.1520 o         1 MOL     -0.702911
     65 H26         5.9320   -0.1200   -1.6920 hn        1 MOL      0.157656
     66 H27         7.7580    2.0430   -2.5710 h1        1 MOL      0.098704
     67 H28         5.8600    1.6710   -3.8340 hc        1 MOL      0.054941
     68 H29         5.7930    3.2900   -3.1260 hc        1 MOL      0.054941
     69 N6          6.8630    2.2800    0.3950 n         1 MOL     -0.335357
     70 C23         6.6890    2.9640    1.6430 c3        1 MOL      0.113696
     71 C24         5.5710    3.9160    1.7870 c         1 MOL      0.381966
     72 O13         5.6610    4.9250    2.5470 o         1 MOL     -0.577707
     73 H30         6.6880    1.2850    0.4400 hn        1 MOL      0.242293
     74 H31         7.5800    3.5150    1.9630 h1        1 MOL      0.028615
     75 H32         6.5880    2.2260    2.4370 h1        1 MOL      0.028615
     76 N7          4.3990    3.5480    1.2570 n         1 MOL     -0.122629
     77 C25         3.1680    4.2500    1.4030 c3        1 MOL      0.002663
     78 C26         1.9960    3.2570    1.4770 c         1 MOL      0.370435
     79 O14         2.1060    2.0770    1.1380 o         1 MOL     -0.568713
     80 C27         2.9740    5.2830    0.2200 c3        1 MOL     -0.034635
     81 C28         3.6930    6.6240    0.3640 c3        1 MOL     -0.248253
     82 C29         3.0140    7.6380   -0.5220 c         1 MOL      0.602079
     83 N8          3.4560    7.8330   -1.7120 n         1 MOL     -0.738087
     84 O15         2.0230    8.2540   -0.1500 o         1 MOL     -0.583451
     85 H33         4.2960    2.6070    0.9090 hn        1 MOL      0.176050
     86 H34         3.1760    4.8200    2.3380 h1        1 MOL      0.052199
     87 H35         1.9060    5.5310    0.1780 hc        1 MOL      0.080354
     88 H36         3.2660    4.7660   -0.6940 hc        1 MOL      0.080354
     89 H37         4.7450    6.5100    0.1020 hc        1 MOL      0.089703
     90 H38         3.6950    6.9780    1.4010 hc        1 MOL      0.089703
     91 H39         4.3440    7.4720   -2.0240 hn        1 MOL      0.347764
     92 H40         2.8960    8.4650   -2.2800 hn        1 MOL      0.347764
     93 N9          0.7810    3.6350    1.9250 n         1 MOL     -0.280932
     94 C30        -0.4070    2.7640    1.9950 c3        1 MOL      0.329469
     95 C31        -1.3860    3.2210    0.9270 c         1 MOL      0.206643
     96 O16        -1.7440    4.4240    0.9670 o         1 MOL     -0.568455
     97 C32        -1.0460    2.6100    3.3290 c3        1 MOL      0.406635
     98 C33        -1.9880    1.3970    3.3950 c3        1 MOL     -0.418902
     99 C34        -0.0700    2.4240    4.4730 c3        1 MOL     -0.418902
    100 H41         0.5920    4.5950    2.1810 hn        1 MOL      0.210706
    101 H42        -0.1330    1.7250    1.7970 h1        1 MOL     -0.006455
    102 H43        -1.5490    3.5500    3.5580 hc        1 MOL     -0.091372
    103 H44        -2.1700    1.1080    4.4330 hc        1 MOL      0.079690
    104 H45        -2.9270    1.6120    2.9010 hc        1 MOL      0.079690
    105 H46        -1.5440    0.5040    2.9500 hc        1 MOL      0.079690
    106 H47        -0.5410    2.3980    5.4600 hc        1 MOL      0.079690
    107 H48         0.6110    1.6180    4.2170 hc        1 MOL      0.079690
    108 H49         0.5130    3.3370    4.4290 hc        1 MOL      0.079690
    109 N10        -1.8190    2.3660   -0.0260 n         1 MOL      0.029976
    110 C35        -3.0450    2.5870   -0.8470 c3        1 MOL      0.217098
    111 C36        -4.2800    1.9230   -0.1600 c         1 MOL      0.181570
    112 O17        -4.1240    1.2070    0.8420 o         1 MOL     -0.274817
    113 C37        -2.7430    2.1190   -2.2850 c3        1 MOL     -0.528099
    114 C38        -3.4430    0.8410   -2.5210 c         1 MOL      0.801207
    115 N11        -2.7130   -0.2730   -2.4300 n         1 MOL     -0.791347
    116 O18        -4.5310    0.8420   -3.0640 o         1 MOL     -0.559264
    117 H50        -1.5130    1.4080    0.0330 hn        1 MOL     -0.013511
    118 H51        -3.2690    3.6490   -0.9030 h1        1 MOL      0.046015
    119 H52        -1.6750    1.9430   -2.4300 hc        1 MOL      0.152353
    120 H53        -3.1830    2.8830   -2.9280 hc        1 MOL      0.152353
    121 H54        -1.8310   -0.1990   -1.9570 hn        1 MOL      0.403000
    122 H55        -3.1480   -1.1340   -2.7300 hn        1 MOL      0.403000
    123 N12        -5.4760    2.2810   -0.5630 n         1 MOL     -0.366905
    124 C39        -6.7370    1.9040    0.0470 c3        1 MOL      0.081333
    125 C40        -6.8820    0.3540    0.0690 c         1 MOL      0.665556
    126 O19        -7.4010   -0.1940    0.9690 o         1 MOL     -0.549276
    127 C41        -7.8910    2.4700   -0.7980 c3        1 MOL     -0.124342
    128 C42        -9.2600    2.0190   -0.3940 ca        1 MOL      0.145050
    129 C43        -9.8050    2.3980    0.8090 ca        1 MOL     -0.307104
    130 C44        -9.9340    1.2270   -1.3000 ca        1 MOL     -0.307104
    131 C45       -11.0820    1.9430    1.1070 ca        1 MOL     -0.056536
    132 C46       -11.1690    0.6230   -0.9480 ca        1 MOL     -0.056536
    133 C47       -11.7720    1.1400    0.2070 ca        1 MOL      0.156237
    134 O20       -13.0670    0.8080    0.5620 oh        1 MOL     -0.522777
    135 H56        -5.5450    2.9480   -1.3190 hn        1 MOL      0.263748
    136 H57        -6.8710    2.2580    1.0720 h1        1 MOL      0.057432
    137 H58        -7.7130    2.2330   -1.8550 hc        1 MOL      0.053614
    138 H59        -7.8490    3.5570   -0.7720 hc        1 MOL      0.053614
    139 H60        -9.3150    3.1550    1.3980 ha        1 MOL      0.163633
    140 H61        -9.5280    1.0270   -2.2830 ha        1 MOL      0.163633
    141 H62       -11.6430    2.4010    1.9060 ha        1 MOL      0.101915
    142 H63       -11.6610   -0.1230   -1.5570 ha        1 MOL      0.101915
    143 H64       -13.4180    0.1670   -0.0580 ho        1 MOL      0.380280
    144 N13        -6.2290   -0.3850   -0.8640 n         1 MOL     -0.444723
    145 C48        -6.2470   -1.9200   -1.0140 c3        1 MOL     -0.003108
    146 C49        -5.3770   -2.7010    0.1190 c         1 MOL      0.317472
    147 O21        -5.8260   -3.7660    0.5580 o         1 MOL     -0.508814
    148 C50        -5.6590   -2.3170   -2.4300 c3        1 MOL      0.056067
    149 C51        -6.6480   -1.8580   -3.5520 c3        1 MOL     -0.147240
    150 C52        -6.0550   -1.9840   -4.9700 c         1 MOL      0.655646
    151 O22        -6.2820   -3.0410   -5.5740 o         1 MOL     -0.723244
    152 O23        -5.3790   -1.0350   -5.4240 o         1 MOL     -0.723244
    153 H65        -5.7590    0.1810   -1.5590 hn        1 MOL      0.224879
    154 H66        -7.2690   -2.2640   -0.9180 h1        1 MOL      0.090794
    155 H67        -5.5080   -3.3950   -2.4530 hc        1 MOL      0.014217
    156 H68        -4.7700   -1.7110   -2.5900 hc        1 MOL      0.014217
    157 H69        -6.9950   -0.8480   -3.3280 hc        1 MOL     -0.000740
    158 H70        -7.4630   -2.5850   -3.5310 hc        1 MOL     -0.000740
    159 N14        -4.3600   -1.9890    0.6210 n         1 MOL     -0.083569
    160 C53        -3.5050   -2.4830    1.7070 c3        1 MOL     -0.075766
    161 C54        -4.1460   -2.0270    3.0400 c         1 MOL      0.472682
    162 O24        -4.0150   -2.6780    4.0390 o         1 MOL     -0.569898
    163 C55        -2.1130   -1.7830    1.5260 c3        1 MOL      0.099662
    164 C56        -1.3760   -2.2120    0.2500 c3        1 MOL      0.159171
    165 C57        -0.1760   -1.3710   -0.1010 c         1 MOL      0.558887
    166 O25         0.9380   -1.8640   -0.1420 o         1 MOL     -0.648265
    167 O26        -0.3490   -0.1320   -0.1540 o         1 MOL     -0.648265
    168 H71        -4.1360   -1.1290    0.1580 hn        1 MOL      0.089978
    169 H72        -3.4520   -3.5730    1.6820 h1        1 MOL      0.088433
    170 H73        -1.5650   -1.9820    2.4480 hc        1 MOL      0.025962
    171 H74        -2.2820   -0.7090    1.4980 hc        1 MOL      0.025962
    172 H75        -2.0910   -2.1580   -0.5720 hc        1 MOL     -0.105190
    173 H76        -1.0100   -3.2200    0.4260 hc        1 MOL     -0.105190
    174 N15        -4.7800   -0.8300    3.0440 n         1 MOL     -0.076591
    175 C58        -5.7450   -0.3600    4.1350 c3        1 MOL     -0.183246
    176 H77        -6.1950   -1.2260    4.6190 h1        1 MOL      0.073852
    177 H78        -5.2000    0.2260    4.8750 h1        1 MOL      0.073852
    178 H79        -6.5270    0.2550    3.6880 h1        1 MOL      0.073852
    179 H80        -4.7070   -0.2980    2.1880 hn        1 MOL      0.039058
    180 Ca1         2.2040    0.2310   -0.8350 Ca        1 MOL      1.707866
    181 O27         0.5350   -0.0970   -3.0270 oh        1 MOL     -0.873907
    182 H81        -0.1270    0.0370   -3.7030 ho        1 MOL      0.400759
    183 H82         0.9670   -0.9210   -3.2770 ho        1 MOL      0.400759
    184 O28         1.1470    2.8530   -1.7170 oh        1 MOL     -0.873907
    185 H83         0.4670    3.1040   -2.3490 ho        1 MOL      0.400759
    186 H84         1.9650    2.9610   -2.1970 ho        1 MOL      0.400759
@<TRIPOS>BOND
     1    1    2 1   
     2    1    4 1   
     3    1    5 1   
     4    1    6 1   
     5    2    3 2   
     6    2    7 1   
     7    7    8 1   
     8    7   15 1   
     9    8    9 1   
    10    8   11 1   
    11    8   16 1   
    12    9   10 2   
    13    9   19 1   
    14   11   12 1   
    15   11   17 1   
    16   11   18 1   
    17   12   13 1   
    18   12   14 1   
    19   19   20 1   
    20   19   27 1   
    21   20   21 1   
    22   20   23 1   
    23   20   28 1   
    24   21   22 2   
    25   21   38 1   
    26   23   24 1   
    27   23   25 1   
    28   23   29 1   
    29   24   26 1   
    30   24   30 1   
    31   24   31 1   
    32   25   32 1   
    33   25   33 1   
    34   25   34 1   
    35   26   35 1   
    36   26   36 1   
    37   26   37 1   
    38   38   39 1   
    39   38   46 1   
    40   39   40 1   
    41   39   42 1   
    42   39   47 1   
    43   40   41 2   
    44   40   50 1   
    45   42   43 1   
    46   42   48 1   
    47   42   49 1   
    48   43   44 1   
    49   43   45 1   
    50   50   51 1   
    51   50   54 1   
    52   51   52 1   
    53   51   55 1   
    54   51   56 1   
    55   52   53 2   
    56   52   57 1   
    57   57   58 1   
    58   57   65 1   
    59   58   59 1   
    60   58   61 1   
    61   58   66 1   
    62   59   60 2   
    63   59   69 1   
    64   61   62 1   
    65   61   67 1   
    66   61   68 1   
    67   62   63 1   
    68   62   64 1   
    69   69   70 1   
    70   69   73 1   
    71   70   71 1   
    72   70   74 1   
    73   70   75 1   
    74   71   72 2   
    75   71   76 1   
    76   76   77 1   
    77   76   85 1   
    78   77   78 1   
    79   77   80 1   
    80   77   86 1   
    81   78   79 2   
    82   78   93 1   
    83   80   81 1   
    84   80   87 1   
    85   80   88 1   
    86   81   82 1   
    87   81   89 1   
    88   81   90 1   
    89   82   83 1   
    90   82   84 2   
    91   83   91 1   
    92   83   92 1   
    93   93   94 1   
    94   93  100 1   
    95   94   95 1   
    96   94   97 1   
    97   94  101 1   
    98   95   96 2   
    99   95  109 1   
   100   97   98 1   
   101   97   99 1   
   102   97  102 1   
   103   98  103 1   
   104   98  104 1   
   105   98  105 1   
   106   99  106 1   
   107   99  107 1   
   108   99  108 1   
   109  109  110 1   
   110  109  117 1   
   111  110  111 1   
   112  110  113 1   
   113  110  118 1   
   114  111  112 2   
   115  111  123 1   
   116  113  114 1   
   117  113  119 1   
   118  113  120 1   
   119  114  115 1   
   120  114  116 2   
   121  115  121 1   
   122  115  122 1   
   123  123  124 1   
   124  123  135 1   
   125  124  125 1   
   126  124  127 1   
   127  124  136 1   
   128  125  126 2   
   129  125  144 1   
   130  127  128 1   
   131  127  137 1   
   132  127  138 1   
   133  128  129 ar  
   134  128  130 ar  
   135  129  131 ar  
   136  129  139 1   
   137  130  132 ar  
   138  130  140 1   
   139  131  133 ar  
   140  131  141 1   
   141  132  133 ar  
   142  132  142 1   
   143  133  134 1   
   144  134  143 1   
   145  144  145 1   
   146  144  153 1   
   147  145  146 1   
   148  145  148 1   
   149  145  154 1   
   150  146  147 2   
   151  146  159 1   
   152  148  149 1   
   153  148  155 1   
   154  148  156 1   
   155  149  150 1   
   156  149  157 1   
   157  149  158 1   
   158  150  151 1   
   159  150  152 1   
   160  159  160 1   
   161  159  168 1   
   162  160  161 1   
   163  160  163 1   
   164  160  169 1   
   165  161  162 2   
   166  161  174 1   
   167  163  164 1   
   168  163  170 1   
   169  163  171 1   
   170  164  165 1   
   171  164  172 1   
   172  164  173 1   
   173  165  166 1   
   174  165  167 1   
   175  174  175 1   
   176  174  179 1   
   177  175  176 1   
   178  175  177 1   
   179  175  178 1   
   180  181  182 1   
   181  181  183 1   
   182  184  185 1   
   183  184  186 1   
@<TRIPOS>SUBSTRUCTURE
     1 MOL         1 TEMP              0 ****  ****    0 ROOT
