@<TRIPOS>MOLECULE
MOL
  169   169     1     0     0
SMALL
resp


@<TRIPOS>ATOM
      1 C1          0.3270   -3.4040    5.9550 c3        1 MOL     -0.351264
      2 C2          0.6790   -3.3910    4.4650 c         1 MOL      0.706253
      3 O1         -0.0500   -4.0020    3.6690 o         1 MOL     -0.550837
      4 H1          0.8330   -2.5770    6.4530 hc        1 MOL      0.087799
      5 H2         -0.7510   -3.2960    6.0750 hc        1 MOL      0.087799
      6 H3          0.6500   -4.3470    6.3970 hc        1 MOL      0.087799
      7 N1          1.8690   -2.7750    4.0790 n         1 MOL     -0.580736
      8 C3          2.2460   -2.6250    2.7020 c3        1 MOL      0.104265
      9 C4          2.4810   -3.9470    1.9590 c         1 MOL      0.399823
     10 O2          3.3360   -4.7890    2.4260 o         1 MOL     -0.594597
     11 C5          3.5190   -1.7650    2.6360 c3        1 MOL     -0.195027
     12 C6          3.7490   -1.1300    1.2630 c         1 MOL      0.665419
     13 O3          3.9130    0.0900    1.1810 o         1 MOL     -0.680675
     14 O4          3.4660   -1.7270    0.2390 o         1 MOL     -0.680675
     15 H4          2.4330   -2.3480    4.8150 hn        1 MOL      0.310938
     16 H5          1.3850   -2.1270    2.2390 h1        1 MOL      0.061642
     17 H6          4.4520   -2.2660    2.8990 hc        1 MOL      0.066816
     18 H7          3.4830   -0.9000    3.2950 hc        1 MOL      0.066816
     19 N2          1.9070   -4.0770    0.8280 n         1 MOL     -0.133932
     20 C7          1.8830   -5.2970    0.0410 c3        1 MOL      0.189346
     21 C8          2.9390   -5.2650   -1.1230 c         1 MOL      0.281794
     22 O5          3.0210   -6.1690   -1.9840 o         1 MOL     -0.545508
     23 C9          0.3870   -5.5860   -0.4160 c3        1 MOL     -0.310260
     24 H8          1.1530   -3.4240    0.6550 hn        1 MOL      0.236129
     25 H9          2.1680   -6.1300    0.6840 h1        1 MOL      0.043946
     26 H10        -0.2720   -5.1590    0.3400 hc        1 MOL      0.088346
     27 H11         0.1610   -5.1610   -1.3930 hc        1 MOL      0.088346
     28 H12         0.2470   -6.6650   -0.4810 hc        1 MOL      0.088346
     29 N3          3.6900   -4.1650   -1.3360 n         1 MOL      0.030160
     30 C10         4.7990   -3.9700   -2.3840 c3        1 MOL     -0.034105
     31 C11         6.0870   -3.3880   -1.7570 c         1 MOL      0.495579
     32 O6          7.1920   -3.7870   -2.1880 o         1 MOL     -0.579863
     33 C12         4.4230   -3.0180   -3.5460 c3        1 MOL     -0.053400
     34 C13         3.7220   -1.7180   -3.0150 c         1 MOL      0.645752
     35 O7          4.4300   -0.7170   -2.6920 o         1 MOL     -0.674293
     36 O8          2.5090   -1.7280   -3.0380 o         1 MOL     -0.674293
     37 H13         3.6610   -3.4180   -0.6520 hn        1 MOL     -0.140036
     38 H14         5.1440   -4.9660   -2.6710 h1        1 MOL      0.058263
     39 H15         3.6950   -3.5650   -4.1470 hc        1 MOL      0.012625
     40 H16         5.2980   -2.7710   -4.1440 hc        1 MOL      0.012625
     41 N4          5.8560   -2.7020   -0.6680 n         1 MOL     -0.407659
     42 C14         6.9140   -2.2070    0.2040 c3        1 MOL     -0.126059
     43 C15         7.0570   -0.7250    0.1750 c         1 MOL      0.500968
     44 O9          7.6050   -0.1790    1.1230 o         1 MOL     -0.599789
     45 H17         4.8960   -2.4330   -0.5490 hn        1 MOL      0.485034
     46 H18         7.8840   -2.6650   -0.0010 h1        1 MOL      0.109022
     47 H19         6.6110   -2.5380    1.1950 h1        1 MOL      0.109022
     48 N5          6.5970   -0.0460   -0.8760 n         1 MOL     -0.249247
     49 C16         6.8790    1.3900   -1.2120 c3        1 MOL      0.114781
     50 C17         6.7960    2.4470   -0.0180 c         1 MOL      0.392303
     51 O10         7.5050    3.4440    0.0620 o         1 MOL     -0.578408
     52 C18         6.2560    2.0210   -2.4390 c3        1 MOL     -0.277284
     53 C19         4.7200    2.3230   -2.3200 c         1 MOL      0.655406
     54 N6          4.1320    2.8400   -3.3700 n         1 MOL     -0.740190
     55 O11         4.0940    2.0480   -1.2480 o         1 MOL     -0.745677
     56 H20         5.8980   -0.4810   -1.4610 hn        1 MOL      0.131555
     57 H21         7.9410    1.3430   -1.4810 h1        1 MOL      0.050945
     58 H22         6.4710    1.3940   -3.3050 hc        1 MOL      0.096840
     59 H23         6.6750    3.0000   -2.6370 hc        1 MOL      0.096840
     60 H24         4.6520    2.9520   -4.2270 hn        1 MOL      0.372742
     61 H25         3.1770    3.1700   -3.3360 hn        1 MOL      0.372742
     62 N7          6.0250    2.1710    1.0420 n         1 MOL      0.100306
     63 C20         5.7940    2.9050    2.2650 c3        1 MOL     -0.402921
     64 C21         4.6850    3.9750    2.0590 c         1 MOL      0.690004
     65 O12         4.6550    4.9280    2.8100 o         1 MOL     -0.598273
     66 H26         5.3300    1.4740    0.8290 hn        1 MOL      0.086983
     67 H27         6.7550    3.3460    2.5270 h1        1 MOL      0.144610
     68 H28         5.5100    2.2510    3.0950 h1        1 MOL      0.144610
     69 N8          3.8250    3.8160    1.0670 n         1 MOL     -0.580791
     70 C22         2.6610    4.6680    0.7010 c3        1 MOL      0.089555
     71 C23         1.4870    3.7000    0.5930 c         1 MOL      0.586791
     72 O13         1.5380    2.6080    0.0500 o         1 MOL     -0.637023
     73 C24         2.9310    5.3660   -0.6510 c3        1 MOL      0.490277
     74 C25         1.8410    6.3250   -1.0420 c3        1 MOL     -0.575215
     75 O14         4.0490    6.1530   -0.4920 oh        1 MOL     -0.580551
     76 H29         3.9000    3.0140    0.4670 hn        1 MOL      0.366739
     77 H30         2.4180    5.4160    1.4470 h1        1 MOL      0.076968
     78 H31         3.1450    4.6450   -1.4390 h1        1 MOL     -0.012018
     79 H32         4.3890    6.1170   -1.3890 ho        1 MOL      0.354498
     80 H33         2.1480    6.7370   -2.0040 hc        1 MOL      0.132407
     81 H34         0.8840    5.8250   -1.2130 hc        1 MOL      0.132407
     82 H35         1.8110    7.0460   -0.2240 hc        1 MOL      0.132407
     83 N9          0.3300    4.0590    1.1310 n         1 MOL     -0.460385
     84 C26        -0.9300    3.2790    1.1800 c3        1 MOL     -0.072025
     85 C27        -1.4800    3.2330   -0.2300 c         1 MOL      0.484929
     86 O15        -1.8390    4.2450   -0.8340 o         1 MOL     -0.596478
     87 C28        -1.9710    3.8830    2.1820 c3        1 MOL      0.164287
     88 C29        -1.5060    3.5360    3.5670 c3        1 MOL      0.140853
     89 C30        -3.4760    3.5280    1.8700 c3        1 MOL     -0.191329
     90 C31        -2.3130    4.0910    4.8140 c3        1 MOL     -0.170356
     91 H36         0.3200    5.0070    1.4740 hn        1 MOL      0.240145
     92 H37        -0.6160    2.2850    1.4880 h1        1 MOL      0.127015
     93 H38        -1.9230    4.9790    2.1570 hc        1 MOL     -0.011847
     94 H39        -0.4620    3.8310    3.6760 hc        1 MOL     -0.032124
     95 H40        -1.5750    2.4540    3.6500 hc        1 MOL     -0.032124
     96 H41        -3.4660    2.4690    2.1150 hc        1 MOL      0.033832
     97 H42        -4.1000    4.0640    2.5830 hc        1 MOL      0.033832
     98 H43        -3.6660    3.7390    0.8180 hc        1 MOL      0.033832
     99 H44        -3.3780    3.8990    4.6700 hc        1 MOL      0.028983
    100 H45        -1.8900    3.7190    5.7450 hc        1 MOL      0.028983
    101 H46        -2.1960    5.1720    4.8220 hc        1 MOL      0.028983
    102 N10        -1.7310    2.0530   -0.7270 n         1 MOL     -0.210561
    103 C32        -2.7030    1.7220   -1.8040 c3        1 MOL      0.302737
    104 C33        -4.0840    1.3340   -1.2620 c         1 MOL      0.241860
    105 O16        -4.1380    0.9020   -0.1460 o         1 MOL     -0.296969
    106 C34        -2.1270    0.7550   -2.8540 c3        1 MOL     -0.084798
    107 C35        -0.7470    1.0170   -3.3230 c         1 MOL      0.669270
    108 O17         0.3020    0.8600   -2.6540 o         1 MOL     -0.709352
    109 O18        -0.5970    1.4740   -4.5090 o         1 MOL     -0.709352
    110 H47        -1.4090    1.2420   -0.2130 hn        1 MOL      0.138754
    111 H48        -2.8380    2.6140   -2.4160 h1        1 MOL     -0.017617
    112 H49        -2.7600    0.7870   -3.7500 hc        1 MOL     -0.004512
    113 H50        -2.0770   -0.2580   -2.4570 hc        1 MOL     -0.004512
    114 N11        -5.1260    1.2440   -2.0370 n         1 MOL     -0.446060
    115 C36        -6.5170    1.0920   -1.4280 c3        1 MOL      0.227073
    116 C37        -6.7050   -0.2890   -0.7040 c         1 MOL      0.356107
    117 O19        -7.3420   -0.3590    0.3620 o         1 MOL     -0.455854
    118 C38        -7.5590    1.4490   -2.4370 c3        1 MOL     -0.121946
    119 C39        -8.9860    1.1030   -1.9890 ca        1 MOL      0.096376
    120 C40        -9.6190    1.7320   -0.8880 ca        1 MOL     -0.205651
    121 C41        -9.7310    0.0880   -2.6900 ca        1 MOL     -0.205651
    122 C42       -10.9080    1.3430   -0.5040 ca        1 MOL     -0.092962
    123 C43       -11.0560   -0.2330   -2.2690 ca        1 MOL     -0.092962
    124 C44       -11.6090    0.3170   -1.1540 ca        1 MOL     -0.083555
    125 H51        -5.0700    1.6480   -2.9530 hn        1 MOL      0.289430
    126 H52        -6.5550    1.8430   -0.6480 h1        1 MOL      0.055283
    127 H53        -7.4020    0.9020   -3.3640 hc        1 MOL      0.047443
    128 H54        -7.5260    2.4990   -2.7360 hc        1 MOL      0.047443
    129 H55        -9.1140    2.4390   -0.2480 ha        1 MOL      0.133452
    130 H56        -9.2710   -0.4970   -3.4720 ha        1 MOL      0.133452
    131 H57       -11.3080    1.8980    0.3320 ha        1 MOL      0.101105
    132 H58       -11.6380   -0.9310   -2.8430 ha        1 MOL      0.101105
    133 H59       -12.6240    0.0920   -0.8650 ha        1 MOL      0.089592
    134 N12        -6.1480   -1.4070   -1.2270 n         1 MOL     -0.080730
    135 C45        -6.1220   -2.7060   -0.5670 c3        1 MOL     -0.030265
    136 C46        -5.4460   -2.6720    0.8170 c         1 MOL      0.299266
    137 O20        -5.7150   -3.4710    1.7230 o         1 MOL     -0.505780
    138 C47        -5.4250   -3.6970   -1.4900 c3        1 MOL      0.002230
    139 C48        -4.8880   -2.8960   -2.6220 c3        1 MOL     -0.016414
    140 C49        -5.7750   -1.6470   -2.6170 c3        1 MOL      0.036965
    141 H60        -7.1010   -3.1450   -0.3530 h1        1 MOL      0.065076
    142 H61        -4.6490   -4.2580   -0.9540 hc        1 MOL      0.022565
    143 H62        -6.1020   -4.4260   -1.9400 hc        1 MOL      0.022565
    144 H63        -3.8250   -2.6840   -2.4830 hc        1 MOL      0.034266
    145 H64        -4.9280   -3.4300   -3.5660 hc        1 MOL      0.034266
    146 H65        -5.1520   -0.8390   -2.9970 h1        1 MOL     -0.004530
    147 H66        -6.6440   -1.7370   -3.2800 h1        1 MOL     -0.004530
    148 N13        -4.4700   -1.7510    1.0720 n         1 MOL     -0.010047
    149 C50        -3.6440   -1.6860    2.2740 c3        1 MOL     -0.087037
    150 C51        -4.3140   -0.8290    3.3060 c         1 MOL      0.404214
    151 O21        -4.2000   -1.1670    4.5010 o         1 MOL     -0.564302
    152 C52        -2.2370   -1.1130    1.8230 c3        1 MOL      0.089772
    153 C53        -1.6590   -1.8210    0.5360 c3        1 MOL     -0.049454
    154 C54        -0.4050   -1.1420   -0.0680 c         1 MOL      0.623373
    155 O22        -0.1250    0.0200    0.2750 o         1 MOL     -0.681390
    156 O23         0.4890   -1.8350   -0.6420 o         1 MOL     -0.681390
    157 H67        -4.2950   -1.0850    0.3340 hn        1 MOL      0.092650
    158 H68        -3.5140   -2.7130    2.6210 h1        1 MOL      0.118225
    159 H69        -1.4990   -1.2970    2.6100 hc        1 MOL     -0.026382
    160 H70        -2.3140   -0.0310    1.7280 hc        1 MOL     -0.026382
    161 H71        -2.3660   -1.8230   -0.2980 hc        1 MOL     -0.000947
    162 H72        -1.4510   -2.8530    0.8300 hc        1 MOL     -0.000947
    163 N14        -5.1710    0.0860    2.9160 n         1 MOL      0.020298
    164 C55        -6.2340    0.7550    3.7450 c3        1 MOL     -0.276318
    165 H73        -7.2180    0.4790    3.3670 h1        1 MOL      0.103903
    166 H74        -6.1420    0.4340    4.7830 h1        1 MOL      0.103903
    167 H75        -6.1130    1.8370    3.6880 h1        1 MOL      0.103903
    168 H76        -5.3340    0.1590    1.9210 hn        1 MOL      0.006863
    169 Ca1         2.1280    0.1800   -0.9650 Ca        1 MOL      1.752588
@<TRIPOS>BOND
     1    1    2 1   
     2    1    4 1   
     3    1    5 1   
     4    1    6 1   
     5    2    3 2   
     6    2    7 1   
     7    7    8 1   
     8    7   15 1   
     9    8    9 1   
    10    8   11 1   
    11    8   16 1   
    12    9   10 2   
    13    9   19 1   
    14   11   12 1   
    15   11   17 1   
    16   11   18 1   
    17   12   13 1   
    18   12   14 1   
    19   19   20 1   
    20   19   24 1   
    21   20   21 1   
    22   20   23 1   
    23   20   25 1   
    24   21   22 2   
    25   21   29 1   
    26   23   26 1   
    27   23   27 1   
    28   23   28 1   
    29   29   30 1   
    30   29   37 1   
    31   30   31 1   
    32   30   33 1   
    33   30   38 1   
    34   31   32 2   
    35   31   41 1   
    36   33   34 1   
    37   33   39 1   
    38   33   40 1   
    39   34   35 1   
    40   34   36 1   
    41   41   42 1   
    42   41   45 1   
    43   42   43 1   
    44   42   46 1   
    45   42   47 1   
    46   43   44 2   
    47   43   48 1   
    48   48   49 1   
    49   48   56 1   
    50   49   50 1   
    51   49   52 1   
    52   49   57 1   
    53   50   51 2   
    54   50   62 1   
    55   52   53 1   
    56   52   58 1   
    57   52   59 1   
    58   53   54 1   
    59   53   55 2   
    60   54   60 1   
    61   54   61 1   
    62   62   63 1   
    63   62   66 1   
    64   63   64 1   
    65   63   67 1   
    66   63   68 1   
    67   64   65 2   
    68   64   69 1   
    69   69   70 1   
    70   69   76 1   
    71   70   71 1   
    72   70   73 1   
    73   70   77 1   
    74   71   72 2   
    75   71   83 1   
    76   73   74 1   
    77   73   75 1   
    78   73   78 1   
    79   74   80 1   
    80   74   81 1   
    81   74   82 1   
    82   75   79 1   
    83   83   84 1   
    84   83   91 1   
    85   84   85 1   
    86   84   87 1   
    87   84   92 1   
    88   85   86 2   
    89   85  102 1   
    90   87   88 1   
    91   87   89 1   
    92   87   93 1   
    93   88   90 1   
    94   88   94 1   
    95   88   95 1   
    96   89   96 1   
    97   89   97 1   
    98   89   98 1   
    99   90   99 1   
   100   90  100 1   
   101   90  101 1   
   102  102  103 1   
   103  102  110 1   
   104  103  104 1   
   105  103  106 1   
   106  103  111 1   
   107  104  105 2   
   108  104  114 1   
   109  106  107 1   
   110  106  112 1   
   111  106  113 1   
   112  107  108 1   
   113  107  109 1   
   114  114  115 1   
   115  114  125 1   
   116  115  116 1   
   117  115  118 1   
   118  115  126 1   
   119  116  117 2   
   120  116  134 1   
   121  118  119 1   
   122  118  127 1   
   123  118  128 1   
   124  119  120 ar  
   125  119  121 ar  
   126  120  122 ar  
   127  120  129 1   
   128  121  123 ar  
   129  121  130 1   
   130  122  124 ar  
   131  122  131 1   
   132  123  124 ar  
   133  123  132 1   
   134  124  133 1   
   135  134  135 1   
   136  134  140 1   
   137  135  136 1   
   138  135  138 1   
   139  135  141 1   
   140  136  137 2   
   141  136  148 1   
   142  138  139 1   
   143  138  142 1   
   144  138  143 1   
   145  139  140 1   
   146  139  144 1   
   147  139  145 1   
   148  140  146 1   
   149  140  147 1   
   150  148  149 1   
   151  148  157 1   
   152  149  150 1   
   153  149  152 1   
   154  149  158 1   
   155  150  151 2   
   156  150  163 1   
   157  152  153 1   
   158  152  159 1   
   159  152  160 1   
   160  153  154 1   
   161  153  161 1   
   162  153  162 1   
   163  154  155 1   
   164  154  156 1   
   165  163  164 1   
   166  163  168 1   
   167  164  165 1   
   168  164  166 1   
   169  164  167 1   
@<TRIPOS>SUBSTRUCTURE
     1 MOL         1 TEMP              0 ****  ****    0 ROOT
