@<TRIPOS>MOLECULE
MOL
  186   183     1     0     0
SMALL
resp


@<TRIPOS>ATOM
      1 C1          0.4700   -3.1410    5.9980 c3        1 MOL     -0.421101
      2 C2          0.8470   -2.8250    4.5420 c         1 MOL      0.680937
      3 O1          0.9030   -1.6700    4.1300 o         1 MOL     -0.595398
      4 H1         -0.5680   -3.4720    6.0410 hc        1 MOL      0.108159
      5 H2          1.1180   -3.9320    6.3780 hc        1 MOL      0.108159
      6 H3          0.5910   -2.2470    6.6080 hc        1 MOL      0.108159
      7 N1          1.2180   -3.8320    3.7800 n         1 MOL     -0.540596
      8 C3          1.9480   -3.5530    2.4930 c3        1 MOL      0.209143
      9 C4          1.8030   -4.7380    1.4710 c         1 MOL      0.388732
     10 O2          1.8390   -5.9100    1.9410 o         1 MOL     -0.567575
     11 C5          3.4290   -3.4740    2.8870 c3        1 MOL     -0.190643
     12 C6          4.2300   -3.0320    1.6590 c         1 MOL      0.674680
     13 O3          3.7720   -2.2850    0.7550 o         1 MOL     -0.667649
     14 O4          5.4180   -3.3750    1.6360 o         1 MOL     -0.667649
     15 H4          1.1630   -4.7570    4.1690 hn        1 MOL      0.303506
     16 H5          1.5410   -2.6570    2.0320 h1        1 MOL     -0.036711
     17 H6          3.7580   -4.4230    3.2990 hc        1 MOL      0.047184
     18 H7          3.4550   -2.6730    3.6300 hc        1 MOL      0.047184
     19 N2          1.8320   -4.4910    0.1680 n         1 MOL     -0.034653
     20 C7          1.8290   -5.5350   -0.8830 c3        1 MOL     -0.312942
     21 C8          2.8490   -5.3150   -1.9920 c         1 MOL      0.538469
     22 O5          3.1620   -6.2140   -2.7870 o         1 MOL     -0.602263
     23 C9          0.3740   -5.7320   -1.4820 c3        1 MOL      0.264093
     24 C10        -0.1230   -4.6230   -2.3310 c3        1 MOL     -0.063123
     25 C11        -0.6980   -6.0640   -0.3880 c3        1 MOL     -0.337877
     26 C12        -1.1070   -5.0810   -3.3650 c3        1 MOL     -0.138531
     27 H8          1.6660   -3.5220   -0.0560 hn        1 MOL      0.225676
     28 H9          2.1740   -6.4620   -0.4350 h1        1 MOL      0.151920
     29 H10         0.4080   -6.6470   -2.0700 hc        1 MOL     -0.042589
     30 H11         0.6380   -4.0950   -2.9050 hc        1 MOL      0.073949
     31 H12        -0.5430   -3.9870   -1.5510 hc        1 MOL      0.073949
     32 H13        -0.3530   -6.8410    0.2950 hc        1 MOL      0.078836
     33 H14        -0.9050   -5.1440    0.1590 hc        1 MOL      0.078836
     34 H15        -1.6450   -6.2790   -0.8890 hc        1 MOL      0.078836
     35 H16        -1.8400   -4.3340   -3.6700 hc        1 MOL      0.028020
     36 H17        -0.6270   -5.2340   -4.3290 hc        1 MOL      0.028020
     37 H18        -1.6030   -6.0080   -3.0700 hc        1 MOL      0.028020
     38 N3          3.5730   -4.2320   -1.9580 n         1 MOL     -0.240714
     39 C13         4.4740   -3.7200   -2.9930 c3        1 MOL     -0.039192
     40 C14         5.7730   -3.0310   -2.5450 c         1 MOL      0.303485
     41 O6          6.7270   -3.0310   -3.3920 o         1 MOL     -0.545809
     42 C15         3.7570   -2.7560   -3.8660 c3        1 MOL     -0.143853
     43 C16         3.0760   -1.6370   -3.1770 c         1 MOL      0.711778
     44 O7          3.3790   -1.3830   -1.9950 o         1 MOL     -0.725256
     45 O8          2.2450   -0.9760   -3.8400 o         1 MOL     -0.725256
     46 H19         3.3460   -3.5840   -1.2130 hn        1 MOL      0.116615
     47 H20         4.6830   -4.5740   -3.6330 h1        1 MOL      0.108091
     48 H21         3.0220   -3.3780   -4.3800 hc        1 MOL      0.054376
     49 H22         4.4230   -2.3360   -4.6230 hc        1 MOL      0.054376
     50 N4          5.8250   -2.4410   -1.3620 n         1 MOL      0.141235
     51 C17         7.0770   -1.9460   -0.7510 c3        1 MOL     -0.356107
     52 C18         7.5100   -0.6750   -1.3970 c         1 MOL      0.584918
     53 O9          8.6590   -0.4520   -1.7500 o         1 MOL     -0.620268
     54 H23         5.0260   -2.4080   -0.7540 hn        1 MOL      0.058735
     55 H24         7.7970   -2.6980   -1.0460 h1        1 MOL      0.130105
     56 H25         6.9370   -1.7150    0.3050 h1        1 MOL      0.130105
     57 N5          6.5560    0.2340   -1.5640 n         1 MOL     -0.145609
     58 C19         6.6200    1.4780   -2.2480 c3        1 MOL     -0.110270
     59 C20         6.8210    2.7700   -1.3450 c         1 MOL      0.503034
     60 O10         6.7680    3.8310   -1.8010 o         1 MOL     -0.500243
     61 C21         5.3630    1.6410   -3.1860 c3        1 MOL     -0.198506
     62 C22         4.0720    1.7310   -2.4750 c         1 MOL      0.864329
     63 O11         3.9720    1.4090   -1.2560 o         1 MOL     -0.733528
     64 O12         3.0650    2.2840   -3.0180 o         1 MOL     -0.733528
     65 H26         5.6270   -0.0500   -1.3090 hn        1 MOL      0.059972
     66 H27         7.4360    1.3820   -2.9610 h1        1 MOL      0.121999
     67 H28         5.2190    0.8100   -3.8740 hc        1 MOL      0.059169
     68 H29         5.6340    2.4690   -3.8470 hc        1 MOL      0.059169
     69 N6          6.9140    2.4840   -0.0400 n         1 MOL     -0.441076
     70 C23         7.0600    3.5120    1.0330 c3        1 MOL      0.016712
     71 C24         5.7460    4.0820    1.5230 c         1 MOL      0.599733
     72 O13         5.8320    4.8640    2.4930 o         1 MOL     -0.607319
     73 H30         6.8030    1.5350    0.2770 hn        1 MOL      0.250042
     74 H31         7.6390    4.3560    0.6600 h1        1 MOL      0.062953
     75 H32         7.6390    3.1240    1.8650 h1        1 MOL      0.062953
     76 N7          4.5610    3.6920    0.9860 n         1 MOL     -0.578290
     77 C25         3.2380    4.1740    1.5280 c3        1 MOL      0.266504
     78 C26         2.1410    3.1720    1.6630 c         1 MOL      0.402935
     79 O14         1.9810    2.2060    0.8680 o         1 MOL     -0.557137
     80 C27         2.7700    5.2900    0.5990 c3        1 MOL     -0.009945
     81 C28         3.8920    6.2250    0.0370 c3        1 MOL     -0.379538
     82 C29         3.3240    7.4410   -0.6080 c         1 MOL      0.730157
     83 N8          2.8220    7.3440   -1.8160 n         1 MOL     -0.843610
     84 O15         3.2530    8.5620   -0.1010 o         1 MOL     -0.604945
     85 H33         4.5570    3.2250    0.0950 hn        1 MOL      0.318366
     86 H34         3.4600    4.6570    2.4830 h1        1 MOL      0.023510
     87 H35         2.0880    5.8950    1.1920 hc        1 MOL      0.061003
     88 H36         2.2180    4.9750   -0.2890 hc        1 MOL      0.061003
     89 H37         4.5650    5.6200   -0.5750 hc        1 MOL      0.113129
     90 H38         4.6000    6.5970    0.7840 hc        1 MOL      0.113129
     91 H39         2.8300    6.4540   -2.2950 hn        1 MOL      0.374727
     92 H40         2.4570    8.1490   -2.3040 hn        1 MOL      0.374727
     93 N9          1.3310    3.3630    2.6990 n         1 MOL     -0.426624
     94 C30         0.0680    2.5790    2.8560 c3        1 MOL      0.002930
     95 C31        -0.9820    3.0230    1.8630 c         1 MOL      0.499829
     96 O16        -1.3100    4.1940    1.9800 o         1 MOL     -0.585507
     97 C32        -0.3520    2.6340    4.3580 c3        1 MOL      0.139099
     98 C33        -1.2480    1.4050    4.7410 c3        1 MOL     -0.238367
     99 C34         0.8120    2.5830    5.3560 c3        1 MOL     -0.238367
    100 H41         1.5340    4.0940    3.3740 hn        1 MOL      0.288023
    101 H42         0.3940    1.5560    2.6880 h1        1 MOL      0.134517
    102 H43        -0.9250    3.5170    4.6120 hc        1 MOL      0.004852
    103 H44        -1.6890    1.5790    5.7190 hc        1 MOL      0.057071
    104 H45        -2.0970    1.1960    4.0950 hc        1 MOL      0.057071
    105 H46        -0.6990    0.4680    4.8640 hc        1 MOL      0.057071
    106 H47         1.3980    1.6910    5.1070 hc        1 MOL      0.057071
    107 H48         1.4680    3.4440    5.3650 hc        1 MOL      0.057071
    108 H49         0.3890    2.4270    6.3520 hc        1 MOL      0.057071
    109 N10        -1.3440    2.2050    0.8460 n         1 MOL     -0.338565
    110 C35        -2.4580    2.4930   -0.0220 c3        1 MOL      0.347804
    111 C36        -3.8250    2.0910    0.6940 c         1 MOL      0.249693
    112 O17        -3.7830    1.2890    1.6280 o         1 MOL     -0.487554
    113 C37        -2.2410    1.7790   -1.3870 c3        1 MOL     -0.352518
    114 C38        -3.4070    1.9200   -2.3890 c         1 MOL      0.594074
    115 N11        -3.5810    3.1830   -2.7770 n         1 MOL     -0.718929
    116 O18        -4.2560    1.0750   -2.6730 o         1 MOL     -0.471475
    117 H50        -0.9150    1.2940    0.9230 hn        1 MOL      0.274245
    118 H51        -2.4990    3.5690   -0.1200 h1        1 MOL     -0.022618
    119 H52        -2.0930    0.7050   -1.2720 hc        1 MOL      0.124501
    120 H53        -1.3520    2.2880   -1.7550 hc        1 MOL      0.124501
    121 H54        -2.9100    3.9310   -2.8580 hn        1 MOL      0.326238
    122 H55        -4.4850    3.4040   -3.1650 hn        1 MOL      0.326238
    123 N12        -4.9970    2.6150    0.2500 n         1 MOL     -0.102651
    124 C39        -6.2510    2.2520    0.9000 c3        1 MOL      0.080085
    125 C40        -6.6300    0.7570    0.9480 c         1 MOL      0.347437
    126 O19        -7.3430    0.4240    1.8660 o         1 MOL     -0.548479
    127 C41        -7.2780    3.1650    0.3590 c3        1 MOL     -0.105037
    128 C42        -7.4670    3.0130   -1.0780 ca        1 MOL     -0.064161
    129 C43        -8.3420    2.1250   -1.6570 ca        1 MOL     -0.039210
    130 C44        -6.5980    3.7530   -1.9220 ca        1 MOL     -0.039210
    131 C45        -8.4430    1.9860   -3.0700 ca        1 MOL     -0.420771
    132 C46        -6.7940    3.6920   -3.3270 ca        1 MOL     -0.420771
    133 C47        -7.6720    2.7340   -3.9130 ca        1 MOL      0.539334
    134 O20        -7.7000    2.6970   -5.2870 oh        1 MOL     -0.581746
    135 H56        -4.9390    3.3690   -0.4200 hn        1 MOL      0.086436
    136 H57        -6.1010    2.6070    1.9160 h1        1 MOL      0.058459
    137 H58        -7.0230    4.1640    0.6900 hc        1 MOL      0.047962
    138 H59        -8.1790    2.9450    0.9390 hc        1 MOL      0.047962
    139 H60        -9.0580    1.6410   -1.0070 ha        1 MOL      0.113601
    140 H61        -6.0160    4.5510   -1.4790 ha        1 MOL      0.113601
    141 H62        -9.1980    1.3280   -3.4620 ha        1 MOL      0.169425
    142 H63        -6.2180    4.2730   -4.0170 ha        1 MOL      0.169425
    143 H64        -8.2240    1.9560   -5.5830 ho        1 MOL      0.425622
    144 N13        -6.1950   -0.0930    0.0830 n         1 MOL     -0.019871
    145 C48        -6.4300   -1.5190    0.0390 c3        1 MOL     -0.279552
    146 C49        -5.6040   -2.3980    1.0020 c         1 MOL      0.370724
    147 O21        -5.9210   -3.5780    1.1600 o         1 MOL     -0.516022
    148 C50        -6.5320   -2.0600   -1.3970 c3        1 MOL      0.269085
    149 C51        -7.9170   -1.6540   -1.9470 c3        1 MOL     -0.304353
    150 C52        -8.0380   -2.0070   -3.4500 c         1 MOL      0.716384
    151 O22        -7.2350   -1.4570   -4.2430 o         1 MOL     -0.731805
    152 O23        -8.8120   -2.8570   -3.8570 o         1 MOL     -0.731805
    153 H65        -5.6170    0.2560   -0.6740 hn        1 MOL      0.185398
    154 H66        -7.4630   -1.6610    0.3790 h1        1 MOL      0.130220
    155 H67        -6.4600   -3.1500   -1.4000 hc        1 MOL     -0.003789
    156 H68        -5.6980   -1.7430   -2.0280 hc        1 MOL     -0.003789
    157 H69        -8.1700   -0.5930   -1.8590 hc        1 MOL      0.036388
    158 H70        -8.6640   -2.2230   -1.3880 hc        1 MOL      0.036388
    159 N14        -4.5210   -1.8380    1.5560 n         1 MOL     -0.193402
    160 C53        -3.5910   -2.3450    2.5290 c3        1 MOL     -0.186131
    161 C54        -4.0520   -2.0930    3.9640 c         1 MOL      0.445033
    162 O24        -3.3860   -2.4740    4.9100 o         1 MOL     -0.520160
    163 C55        -2.1800   -1.7270    2.1920 c3        1 MOL      0.245566
    164 C56        -1.6960   -1.9490    0.7340 c3        1 MOL     -0.211081
    165 C57        -0.3230   -1.3500    0.4360 c         1 MOL      0.900206
    166 O25         0.0010   -0.2140    0.9160 o         1 MOL     -0.839581
    167 O26         0.4680   -1.9900   -0.3270 o         1 MOL     -0.839581
    168 H71        -4.3010   -0.8840    1.3100 hn        1 MOL      0.201429
    169 H72        -3.5410   -3.4310    2.3820 h1        1 MOL      0.122894
    170 H73        -1.4070   -2.3260    2.6570 hc        1 MOL     -0.004929
    171 H74        -2.0920   -0.6900    2.5420 hc        1 MOL     -0.004929
    172 H75        -2.4000   -1.4360    0.0860 hc        1 MOL      0.014616
    173 H76        -1.7260   -3.0190    0.5350 hc        1 MOL      0.014616
    174 N15        -5.1450   -1.2910    4.1420 n         1 MOL     -0.197336
    175 C58        -5.5880   -0.7750    5.4240 c3        1 MOL     -0.100967
    176 H77        -6.4880   -1.3030    5.7360 h1        1 MOL      0.054916
    177 H78        -4.8040   -0.9240    6.1660 h1        1 MOL      0.054916
    178 H79        -5.8050    0.2890    5.3310 h1        1 MOL      0.054916
    179 H80        -5.5830   -0.8710    3.3320 hn        1 MOL      0.203786
    180 Ca1         2.4010   -0.1750    0.0070 Ca        1 MOL      1.754561
    181 O27         1.0420    1.0510   -1.8070 oh        1 MOL     -0.882033
    182 O28         2.4070   -0.0830    2.7210 oh        1 MOL     -0.882033
    183 H81         0.5410    0.4410   -2.3400 ho        1 MOL      0.426777
    184 H82         1.6320   -0.3960    3.1930 ho        1 MOL      0.426777
    185 H83         1.7220    1.3880   -2.3900 ho        1 MOL      0.426777
    186 H84         3.1400   -0.2990    3.2870 ho        1 MOL      0.426777
@<TRIPOS>BOND
     1    1    2 1   
     2    1    4 1   
     3    1    5 1   
     4    1    6 1   
     5    2    3 2   
     6    2    7 1   
     7    7    8 1   
     8    7   15 1   
     9    8    9 1   
    10    8   11 1   
    11    8   16 1   
    12    9   10 2   
    13    9   19 1   
    14   11   12 1   
    15   11   17 1   
    16   11   18 1   
    17   12   13 1   
    18   12   14 1   
    19   19   20 1   
    20   19   27 1   
    21   20   21 1   
    22   20   23 1   
    23   20   28 1   
    24   21   22 2   
    25   21   38 1   
    26   23   24 1   
    27   23   25 1   
    28   23   29 1   
    29   24   26 1   
    30   24   30 1   
    31   24   31 1   
    32   25   32 1   
    33   25   33 1   
    34   25   34 1   
    35   26   35 1   
    36   26   36 1   
    37   26   37 1   
    38   38   39 1   
    39   38   46 1   
    40   39   40 1   
    41   39   42 1   
    42   39   47 1   
    43   40   41 2   
    44   40   50 1   
    45   42   43 1   
    46   42   48 1   
    47   42   49 1   
    48   43   44 1   
    49   43   45 1   
    50   50   51 1   
    51   50   54 1   
    52   51   52 1   
    53   51   55 1   
    54   51   56 1   
    55   52   53 2   
    56   52   57 1   
    57   57   58 1   
    58   57   65 1   
    59   58   59 1   
    60   58   61 1   
    61   58   66 1   
    62   59   60 2   
    63   59   69 1   
    64   61   62 1   
    65   61   67 1   
    66   61   68 1   
    67   62   63 1   
    68   62   64 1   
    69   69   70 1   
    70   69   73 1   
    71   70   71 1   
    72   70   74 1   
    73   70   75 1   
    74   71   72 2   
    75   71   76 1   
    76   76   77 1   
    77   76   85 1   
    78   77   78 1   
    79   77   80 1   
    80   77   86 1   
    81   78   79 2   
    82   78   93 1   
    83   80   81 1   
    84   80   87 1   
    85   80   88 1   
    86   81   82 1   
    87   81   89 1   
    88   81   90 1   
    89   82   83 1   
    90   82   84 2   
    91   83   91 1   
    92   83   92 1   
    93   93   94 1   
    94   93  100 1   
    95   94   95 1   
    96   94   97 1   
    97   94  101 1   
    98   95   96 2   
    99   95  109 1   
   100   97   98 1   
   101   97   99 1   
   102   97  102 1   
   103   98  103 1   
   104   98  104 1   
   105   98  105 1   
   106   99  106 1   
   107   99  107 1   
   108   99  108 1   
   109  109  110 1   
   110  109  117 1   
   111  110  111 1   
   112  110  113 1   
   113  110  118 1   
   114  111  112 2   
   115  111  123 1   
   116  113  114 1   
   117  113  119 1   
   118  113  120 1   
   119  114  115 1   
   120  114  116 2   
   121  115  121 1   
   122  115  122 1   
   123  123  124 1   
   124  123  135 1   
   125  124  125 1   
   126  124  127 1   
   127  124  136 1   
   128  125  126 2   
   129  125  144 1   
   130  127  128 1   
   131  127  137 1   
   132  127  138 1   
   133  128  129 ar  
   134  128  130 ar  
   135  129  131 ar  
   136  129  139 1   
   137  130  132 ar  
   138  130  140 1   
   139  131  133 ar  
   140  131  141 1   
   141  132  133 ar  
   142  132  142 1   
   143  133  134 1   
   144  134  143 1   
   145  144  145 1   
   146  144  153 1   
   147  145  146 1   
   148  145  148 1   
   149  145  154 1   
   150  146  147 2   
   151  146  159 1   
   152  148  149 1   
   153  148  155 1   
   154  148  156 1   
   155  149  150 1   
   156  149  157 1   
   157  149  158 1   
   158  150  151 1   
   159  150  152 1   
   160  159  160 1   
   161  159  168 1   
   162  160  161 1   
   163  160  163 1   
   164  160  169 1   
   165  161  162 2   
   166  161  174 1   
   167  163  164 1   
   168  163  170 1   
   169  163  171 1   
   170  164  165 1   
   171  164  172 1   
   172  164  173 1   
   173  165  166 1   
   174  165  167 1   
   175  174  175 1   
   176  174  179 1   
   177  175  176 1   
   178  175  177 1   
   179  175  178 1   
   180  181  183 1   
   181  181  185 1   
   182  182  184 1   
   183  182  186 1   
@<TRIPOS>SUBSTRUCTURE
     1 MOL         1 TEMP              0 ****  ****    0 ROOT
