@<TRIPOS>MOLECULE
MOL
  186   183     1     0     0
SMALL
resp


@<TRIPOS>ATOM
      1 C1          0.9920   -1.3390    6.7470 c3        1 MOL     -0.299485
      2 C2          1.2410   -1.7490    5.2060 c         1 MOL      0.590351
      3 O1          0.4900   -2.5620    4.6600 o         1 MOL     -0.493371
      4 H1          1.9360   -1.3860    7.2920 hc        1 MOL      0.069323
      5 H2          0.5960   -0.3240    6.7940 hc        1 MOL      0.069323
      6 H3          0.2790   -2.0290    7.1970 hc        1 MOL      0.069323
      7 N1          2.1910   -1.1770    4.5500 n         1 MOL     -0.526708
      8 C3          2.5300   -1.4560    3.1370 c3        1 MOL      0.251365
      9 C4          2.7390   -2.9030    2.6530 c         1 MOL      0.547246
     10 O2          3.6190   -3.5530    3.1990 o         1 MOL     -0.606768
     11 C5          3.7360   -0.4560    2.8260 c3        1 MOL     -0.534423
     12 C6          4.4680   -0.7260    1.5110 c         1 MOL      0.943427
     13 O3          5.6990   -0.4890    1.4260 o         1 MOL     -0.691138
     14 O4          3.7250   -1.0710    0.5490 o         1 MOL     -0.691138
     15 H4          2.8620   -0.7050    5.1420 hn        1 MOL      0.304511
     16 H5          1.7150   -1.1200    2.4930 h1        1 MOL      0.023157
     17 H6          4.4380   -0.3720    3.6580 hc        1 MOL      0.117833
     18 H7          3.2430    0.4940    2.6440 hc        1 MOL      0.117833
     19 N2          2.1350   -3.4690    1.5860 n         1 MOL     -0.061031
     20 C7          2.0670   -4.9210    1.3530 c3        1 MOL      0.025238
     21 C8          2.9200   -5.3370    0.1440 c         1 MOL      0.177818
     22 O5          3.2840   -6.5200    0.0170 o         1 MOL     -0.539443
     23 C9          0.5730   -5.2820    1.1530 c3        1 MOL      0.308514
     24 C10        -0.2210   -5.1340    2.4770 c3        1 MOL     -0.045909
     25 C11         0.1550   -6.5350    0.4210 c3        1 MOL     -0.498232
     26 C12        -0.1660   -6.2950    3.4020 c3        1 MOL     -0.228698
     27 H8          1.6970   -2.8450    0.9260 hn        1 MOL     -0.123527
     28 H9          2.4630   -5.3910    2.2470 h1        1 MOL      0.076331
     29 H10         0.2840   -4.4890    0.4620 hc        1 MOL     -0.011413
     30 H11        -1.2490   -5.1050    2.1360 hc        1 MOL      0.022394
     31 H12         0.0680   -4.2380    3.0360 hc        1 MOL      0.022394
     32 H13         0.5020   -7.4580    0.8870 hc        1 MOL      0.124627
     33 H14        -0.9370   -6.4650    0.3580 hc        1 MOL      0.124627
     34 H15         0.6820   -6.5270   -0.5290 hc        1 MOL      0.124627
     35 H16         0.8400   -6.7070    3.4900 hc        1 MOL      0.043350
     36 H17        -0.5200   -5.9470    4.3760 hc        1 MOL      0.043350
     37 H18        -0.8390   -7.0500    2.9960 hc        1 MOL      0.043350
     38 N3          3.1460   -4.4300   -0.7580 n         1 MOL      0.032272
     39 C13         3.9700   -4.6680   -1.9890 c3        1 MOL     -0.022390
     40 C14         5.4140   -4.1340   -1.9180 c         1 MOL      0.354637
     41 O6          6.2460   -4.2980   -2.8510 o         1 MOL     -0.488010
     42 C15         3.2510   -4.1510   -3.2600 c3        1 MOL     -0.029521
     43 C16         2.7520   -2.7130   -3.3660 c         1 MOL      0.893487
     44 O7          3.1460   -1.8940   -2.5640 o         1 MOL     -0.759571
     45 O8          2.0220   -2.3500   -4.3220 o         1 MOL     -0.759571
     46 H19         2.7060   -3.5390   -0.5860 hn        1 MOL      0.117136
     47 H20         4.0200   -5.7310   -2.2280 h1        1 MOL      0.090423
     48 H21         2.3130   -4.6860   -3.3110 hc        1 MOL     -0.020797
     49 H22         3.8610   -4.3360   -4.1440 hc        1 MOL     -0.020797
     50 N4          5.8490   -3.4280   -0.7920 n         1 MOL     -0.135032
     51 C17         7.1750   -2.8760   -0.6470 c3        1 MOL     -0.241796
     52 C18         7.4750   -1.5880   -1.4560 c         1 MOL      0.781445
     53 O9          8.3330   -1.7120   -2.2890 o         1 MOL     -0.630787
     54 H23         5.1030   -3.1310   -0.1750 hn        1 MOL      0.144423
     55 H24         7.9470   -3.5990   -0.9060 h1        1 MOL      0.074623
     56 H25         7.2980   -2.5420    0.3800 h1        1 MOL      0.074623
     57 N5          6.9390   -0.4590   -1.1590 n         1 MOL     -0.482143
     58 C19         7.3260    0.8720   -1.6670 c3        1 MOL      0.142038
     59 C20         7.4400    1.9970   -0.6360 c         1 MOL      0.405172
     60 O10         8.1440    2.9830   -0.8280 o         1 MOL     -0.558446
     61 C21         6.4830    1.2720   -2.8680 c3        1 MOL     -0.395116
     62 C22         5.0230    1.4170   -2.4850 c         1 MOL      0.895249
     63 O11         4.1620    1.0220   -3.2740 o         1 MOL     -0.792793
     64 O12         4.5810    1.7690   -1.3900 o         1 MOL     -0.792793
     65 H26         6.2970   -0.5480   -0.3900 hn        1 MOL      0.151292
     66 H27         8.3170    0.7810   -2.1020 h1        1 MOL      0.052733
     67 H28         6.5410    0.4180   -3.5480 hc        1 MOL      0.113600
     68 H29         6.8920    2.1980   -3.2600 hc        1 MOL      0.113600
     69 N6          6.9120    1.7750    0.5560 n         1 MOL     -0.192363
     70 C23         7.0140    2.7020    1.7020 c3        1 MOL     -0.066412
     71 C24         5.9350    3.7410    1.8580 c         1 MOL      0.553332
     72 O13         6.0590    4.7800    2.4170 o         1 MOL     -0.587387
     73 H30         6.5220    0.8520    0.7220 hn        1 MOL      0.240118
     74 H31         7.9620    3.2290    1.6000 h1        1 MOL      0.045495
     75 H32         7.0150    2.0690    2.5920 h1        1 MOL      0.045495
     76 N7          4.8070    3.4490    1.1560 n         1 MOL     -0.270249
     77 C25         3.5900    4.3020    1.1050 c3        1 MOL      0.008507
     78 C26         2.3340    3.3180    1.1270 c         1 MOL      0.436776
     79 O14         2.4230    2.1300    0.9730 o         1 MOL     -0.508007
     80 C27         3.6630    5.0990   -0.2460 c3        1 MOL      0.135203
     81 C28         4.5700    6.3370   -0.0820 c3        1 MOL     -0.440951
     82 C29         4.6320    7.2190   -1.2940 c         1 MOL      0.724937
     83 N8          5.1570    6.7100   -2.3830 n         1 MOL     -0.804967
     84 O15         4.2750    8.3990   -1.3660 o         1 MOL     -0.597243
     85 H33         4.8280    2.5280    0.7450 hn        1 MOL      0.172899
     86 H34         3.5580    5.0210    1.9210 h1        1 MOL      0.070266
     87 H35         2.6740    5.4750   -0.5080 hc        1 MOL      0.017540
     88 H36         4.0600    4.5010   -1.0670 hc        1 MOL      0.017540
     89 H37         5.5750    6.0270    0.2030 hc        1 MOL      0.128114
     90 H38         4.1880    6.9350    0.7480 hc        1 MOL      0.128114
     91 H39         5.6920    5.8520   -2.3820 hn        1 MOL      0.356132
     92 H40         5.3620    7.2150   -3.2290 hn        1 MOL      0.356132
     93 N9          1.1470    3.8280    1.5500 n         1 MOL     -0.457872
     94 C30        -0.1180    2.9730    1.7020 c3        1 MOL      0.168323
     95 C31        -1.1600    3.3810    0.6230 c         1 MOL      0.309522
     96 O16        -1.6300    4.4970    0.7170 o         1 MOL     -0.549543
     97 C32        -0.6280    3.0440    3.1340 c3        1 MOL      0.090694
     98 C33        -2.1170    2.6880    3.2420 c3        1 MOL     -0.217185
     99 C34         0.1000    2.1170    4.0720 c3        1 MOL     -0.217185
    100 H41         1.1440    4.7990    1.8250 hn        1 MOL      0.271123
    101 H42         0.1390    1.9360    1.4780 h1        1 MOL      0.040255
    102 H43        -0.5660    4.0760    3.4830 hc        1 MOL      0.012330
    103 H44        -2.2330    1.6130    3.0640 hc        1 MOL      0.056382
    104 H45        -2.5360    2.8110    4.2390 hc        1 MOL      0.056382
    105 H46        -2.8040    3.3270    2.6970 hc        1 MOL      0.056382
    106 H47        -0.2000    2.3750    5.0800 hc        1 MOL      0.056382
    107 H48        -0.1690    1.0770    3.8760 hc        1 MOL      0.056382
    108 H49         1.1760    2.2450    3.9680 hc        1 MOL      0.056382
    109 N10        -1.4040    2.5570   -0.3520 n         1 MOL     -0.092000
    110 C35        -2.5470    2.6510   -1.3170 c3        1 MOL     -0.066508
    111 C36        -3.8960    2.3600   -0.5260 c         1 MOL      0.332629
    112 O17        -3.8140    1.5900    0.4260 o         1 MOL     -0.221394
    113 C37        -2.3150    1.5730   -2.4270 c3        1 MOL     -0.212076
    114 C38        -3.4930    1.3780   -3.3880 c         1 MOL      0.694643
    115 N11        -3.7420    2.3330   -4.2920 n         1 MOL     -0.844090
    116 O18        -4.3020    0.4440   -3.2940 o         1 MOL     -0.527013
    117 H50        -1.0020    1.6460   -0.1650 hn        1 MOL      0.160592
    118 H51        -2.6930    3.6540   -1.7140 h1        1 MOL      0.081213
    119 H52        -2.0850    0.6720   -1.8450 hc        1 MOL      0.094235
    120 H53        -1.4240    1.6950   -3.0350 hc        1 MOL      0.094235
    121 H54        -3.1130    3.0270   -4.6500 hn        1 MOL      0.368339
    122 H55        -4.3900    2.0460   -5.0160 hn        1 MOL      0.368339
    123 N12        -5.0940    2.8960   -0.8670 n         1 MOL     -0.412168
    124 C39        -6.3480    2.4310   -0.3080 c3        1 MOL      0.123713
    125 C40        -6.5860    0.9270   -0.2180 c         1 MOL      0.648673
    126 O19        -7.2640    0.4880    0.7290 o         1 MOL     -0.526066
    127 C41        -7.4580    3.1360   -1.0260 c3        1 MOL     -0.085430
    128 C42        -8.8100    2.7380   -0.5960 ca        1 MOL      0.058333
    129 C43        -9.3020    2.9610    0.7200 ca        1 MOL     -0.250898
    130 C44        -9.7170    1.9810   -1.4020 ca        1 MOL     -0.250898
    131 C45       -10.6060    2.5970    1.2060 ca        1 MOL     -0.154729
    132 C46       -10.9810    1.5610   -0.9290 ca        1 MOL     -0.154729
    133 C47       -11.4900    1.8750    0.3360 ca        1 MOL      0.239397
    134 O20       -12.6900    1.4670    0.8510 oh        1 MOL     -0.490347
    135 H56        -5.1510    3.7350   -1.4330 hn        1 MOL      0.266327
    136 H57        -6.2920    2.8640    0.6940 h1        1 MOL      0.043362
    137 H58        -7.3830    2.8980   -2.0910 hc        1 MOL      0.040777
    138 H59        -7.3700    4.2240   -0.9610 hc        1 MOL      0.040777
    139 H60        -8.7050    3.3800    1.5120 ha        1 MOL      0.150535
    140 H61        -9.3740    1.7410   -2.3900 ha        1 MOL      0.150535
    141 H62       -10.8070    2.8000    2.2480 ha        1 MOL      0.123719
    142 H63       -11.5760    0.9640   -1.6060 ha        1 MOL      0.123719
    143 H64       -13.1540    0.9180    0.2230 ho        1 MOL      0.373065
    144 N13        -6.1830    0.0570   -1.1690 n         1 MOL     -0.419165
    145 C48        -6.3880   -1.4210   -1.0840 c3        1 MOL     -0.039141
    146 C49        -5.5090   -2.0180   -0.0070 c         1 MOL      0.293443
    147 O21        -5.7560   -3.1680    0.4540 o         1 MOL     -0.523554
    148 C50        -6.1350   -2.1200   -2.4600 c3        1 MOL     -0.120589
    149 C51        -6.7440   -3.5530   -2.4740 c3        1 MOL     -0.231603
    150 C52        -6.8320   -4.0190   -3.9110 c         1 MOL      0.736702
    151 O22        -6.0360   -4.9040   -4.2210 o         1 MOL     -0.760141
    152 O23        -7.8020   -3.6280   -4.6700 o         1 MOL     -0.760141
    153 H65        -5.7140    0.3370   -2.0140 hn        1 MOL      0.247283
    154 H66        -7.4290   -1.5990   -0.8180 h1        1 MOL      0.126029
    155 H67        -5.0440   -2.1630   -2.5080 hc        1 MOL      0.073182
    156 H68        -6.5490   -1.6110   -3.3250 hc        1 MOL      0.073182
    157 H69        -7.7210   -3.4420   -2.0060 hc        1 MOL      0.066561
    158 H70        -6.0880   -4.2360   -1.9380 hc        1 MOL      0.066561
    159 N14        -4.5900   -1.2690    0.6120 n         1 MOL      0.013130
    160 C53        -3.7270   -1.7910    1.6560 c3        1 MOL     -0.139023
    161 C54        -4.2810   -1.2470    3.0540 c         1 MOL      0.493112
    162 O24        -4.1590   -1.8260    4.0800 o         1 MOL     -0.545013
    163 C55        -2.2990   -1.3090    1.4650 c3        1 MOL      0.109301
    164 C56        -1.5380   -1.7880    0.2420 c3        1 MOL     -0.045396
    165 C57        -0.1580   -1.2150   -0.1390 c         1 MOL      0.651731
    166 O25         0.7590   -1.8630   -0.6300 o         1 MOL     -0.662964
    167 O26         0.0500    0.0360   -0.0210 o         1 MOL     -0.662964
    168 H71        -4.4560   -0.3170    0.3340 hn        1 MOL      0.034434
    169 H72        -3.7420   -2.8840    1.6390 h1        1 MOL      0.120464
    170 H73        -1.7000   -1.6100    2.3210 hc        1 MOL     -0.019306
    171 H74        -2.3060   -0.2150    1.4850 hc        1 MOL     -0.019306
    172 H75        -2.2330   -1.5740   -0.5610 hc        1 MOL      0.032464
    173 H76        -1.4330   -2.8760    0.2950 hc        1 MOL      0.032464
    174 N15        -4.8740   -0.0500    2.9950 n         1 MOL     -0.094344
    175 C58        -5.5430    0.6170    4.0640 c3        1 MOL     -0.042525
    176 H77        -6.3380    1.2430    3.6600 h1        1 MOL      0.031562
    177 H78        -5.9710   -0.1220    4.7420 h1        1 MOL      0.031562
    178 H79        -4.8310    1.2400    4.6060 h1        1 MOL      0.031562
    179 H80        -4.7530    0.4070    2.1040 hn        1 MOL     -0.012852
    180 Ca1         2.3970    0.1370   -1.2350 Ca        1 MOL      1.709499
    181 O27         1.4620    2.6290   -2.0870 oh        1 MOL     -0.849026
    182 H81         0.6400    2.9580   -2.4390 ho        1 MOL      0.394761
    183 H82         2.1430    3.1790   -2.4870 ho        1 MOL      0.394761
    184 O28         0.7280   -0.2540   -3.4920 oh        1 MOL     -0.849026
    185 H83         0.6130    0.1840   -4.3430 ho        1 MOL      0.394761
    186 H84         1.2210   -1.0460   -3.6940 ho        1 MOL      0.394761
@<TRIPOS>BOND
     1    1    2 1   
     2    1    4 1   
     3    1    5 1   
     4    1    6 1   
     5    2    3 2   
     6    2    7 1   
     7    7    8 1   
     8    7   15 1   
     9    8    9 1   
    10    8   11 1   
    11    8   16 1   
    12    9   10 2   
    13    9   19 1   
    14   11   12 1   
    15   11   17 1   
    16   11   18 1   
    17   12   13 1   
    18   12   14 1   
    19   19   20 1   
    20   19   27 1   
    21   20   21 1   
    22   20   23 1   
    23   20   28 1   
    24   21   22 2   
    25   21   38 1   
    26   23   24 1   
    27   23   25 1   
    28   23   29 1   
    29   24   26 1   
    30   24   30 1   
    31   24   31 1   
    32   25   32 1   
    33   25   33 1   
    34   25   34 1   
    35   26   35 1   
    36   26   36 1   
    37   26   37 1   
    38   38   39 1   
    39   38   46 1   
    40   39   40 1   
    41   39   42 1   
    42   39   47 1   
    43   40   41 2   
    44   40   50 1   
    45   42   43 1   
    46   42   48 1   
    47   42   49 1   
    48   43   44 1   
    49   43   45 1   
    50   50   51 1   
    51   50   54 1   
    52   51   52 1   
    53   51   55 1   
    54   51   56 1   
    55   52   53 2   
    56   52   57 1   
    57   57   58 1   
    58   57   65 1   
    59   58   59 1   
    60   58   61 1   
    61   58   66 1   
    62   59   60 2   
    63   59   69 1   
    64   61   62 1   
    65   61   67 1   
    66   61   68 1   
    67   62   63 1   
    68   62   64 1   
    69   69   70 1   
    70   69   73 1   
    71   70   71 1   
    72   70   74 1   
    73   70   75 1   
    74   71   72 2   
    75   71   76 1   
    76   76   77 1   
    77   76   85 1   
    78   77   78 1   
    79   77   80 1   
    80   77   86 1   
    81   78   79 2   
    82   78   93 1   
    83   80   81 1   
    84   80   87 1   
    85   80   88 1   
    86   81   82 1   
    87   81   89 1   
    88   81   90 1   
    89   82   83 1   
    90   82   84 2   
    91   83   91 1   
    92   83   92 1   
    93   93   94 1   
    94   93  100 1   
    95   94   95 1   
    96   94   97 1   
    97   94  101 1   
    98   95   96 2   
    99   95  109 1   
   100   97   98 1   
   101   97   99 1   
   102   97  102 1   
   103   98  103 1   
   104   98  104 1   
   105   98  105 1   
   106   99  106 1   
   107   99  107 1   
   108   99  108 1   
   109  109  110 1   
   110  109  117 1   
   111  110  111 1   
   112  110  113 1   
   113  110  118 1   
   114  111  112 2   
   115  111  123 1   
   116  113  114 1   
   117  113  119 1   
   118  113  120 1   
   119  114  115 1   
   120  114  116 2   
   121  115  121 1   
   122  115  122 1   
   123  123  124 1   
   124  123  135 1   
   125  124  125 1   
   126  124  127 1   
   127  124  136 1   
   128  125  126 2   
   129  125  144 1   
   130  127  128 1   
   131  127  137 1   
   132  127  138 1   
   133  128  129 ar  
   134  128  130 ar  
   135  129  131 ar  
   136  129  139 1   
   137  130  132 ar  
   138  130  140 1   
   139  131  133 ar  
   140  131  141 1   
   141  132  133 ar  
   142  132  142 1   
   143  133  134 1   
   144  134  143 1   
   145  144  145 1   
   146  144  153 1   
   147  145  146 1   
   148  145  148 1   
   149  145  154 1   
   150  146  147 2   
   151  146  159 1   
   152  148  149 1   
   153  148  155 1   
   154  148  156 1   
   155  149  150 1   
   156  149  157 1   
   157  149  158 1   
   158  150  151 1   
   159  150  152 1   
   160  159  160 1   
   161  159  168 1   
   162  160  161 1   
   163  160  163 1   
   164  160  169 1   
   165  161  162 2   
   166  161  174 1   
   167  163  164 1   
   168  163  170 1   
   169  163  171 1   
   170  164  165 1   
   171  164  172 1   
   172  164  173 1   
   173  165  166 1   
   174  165  167 1   
   175  174  175 1   
   176  174  179 1   
   177  175  176 1   
   178  175  177 1   
   179  175  178 1   
   180  181  182 1   
   181  181  183 1   
   182  184  185 1   
   183  184  186 1   
@<TRIPOS>SUBSTRUCTURE
     1 MOL         1 TEMP              0 ****  ****    0 ROOT
