@<TRIPOS>MOLECULE
MOL
  175   173     1     0     0
SMALL
resp


@<TRIPOS>ATOM
      1 C1          0.6800    3.5860    5.8210 c3        1 MOL     -0.382604
      2 C2          0.1190    3.6730    4.3360 c         1 MOL      0.615827
      3 O1          0.9590    3.7630    3.4050 o         1 MOL     -0.521095
      4 H1          0.8610    4.5930    6.2000 hc        1 MOL      0.093190
      5 H2         -0.0490    3.0850    6.4570 hc        1 MOL      0.093190
      6 H3          1.6140    3.0240    5.8250 hc        1 MOL      0.093190
      7 N1         -1.1820    3.4750    4.1980 n         1 MOL     -0.550557
      8 C3         -1.9030    3.2880    2.9460 c3        1 MOL      0.194615
      9 C4         -1.9180    4.5160    2.0110 c         1 MOL      0.519850
     10 O2         -2.0470    5.6420    2.5480 o         1 MOL     -0.581974
     11 C5         -3.3560    2.9160    3.1980 c3        1 MOL     -0.417844
     12 C6         -3.9350    2.0360    2.0340 c         1 MOL      0.847218
     13 O3         -3.3540    1.9480    0.9090 o         1 MOL     -0.696167
     14 O4         -5.0030    1.4240    2.2170 o         1 MOL     -0.696167
     15 H4         -1.7340    3.5450    5.0400 hn        1 MOL      0.324784
     16 H5         -1.3980    2.4840    2.4110 h1        1 MOL      0.114407
     17 H6         -3.9400    3.8200    3.3290 hc        1 MOL      0.089668
     18 H7         -3.3480    2.3330    4.1270 hc        1 MOL      0.089668
     19 N2         -1.7640    4.2890    0.6970 n         1 MOL     -0.472883
     20 C7         -1.7030    5.2740   -0.3690 c3        1 MOL      0.291441
     21 C8         -2.6210    4.9930   -1.5460 c         1 MOL      0.465901
     22 O5         -2.6570    5.7720   -2.5400 o         1 MOL     -0.581566
     23 C9         -0.2610    5.5970   -0.8210 c3        1 MOL     -0.206153
     24 H8         -1.6720    3.3170    0.4400 hn        1 MOL      0.316800
     25 H9         -2.1970    6.1840   -0.0340 h1        1 MOL     -0.000110
     26 H10        -0.2000    6.4590   -1.4940 hc        1 MOL      0.048113
     27 H11         0.3450    5.6820    0.0770 hc        1 MOL      0.048113
     28 H12         0.1670    4.7160   -1.3010 hc        1 MOL      0.048113
     29 N3         -3.4050    3.9300   -1.5500 n         1 MOL     -0.290010
     30 C10        -4.4550    3.7230   -2.5870 c3        1 MOL      0.098359
     31 C11        -5.8080    3.1660   -2.0580 c         1 MOL      0.403436
     32 O6         -6.7800    3.3780   -2.8300 o         1 MOL     -0.564528
     33 C12        -3.8110    2.7700   -3.6380 c3        1 MOL     -0.197951
     34 C13        -3.0830    1.6590   -2.9600 c         1 MOL      0.632899
     35 O7         -1.8200    1.4560   -3.1110 o         1 MOL     -0.656311
     36 O8         -3.7110    1.0520   -2.0510 o         1 MOL     -0.656311
     37 H13        -3.3510    3.2240   -0.8230 hn        1 MOL      0.083739
     38 H14        -4.7090    4.6830   -3.0340 h1        1 MOL      0.079701
     39 H15        -3.1480    3.3750   -4.2560 hc        1 MOL      0.056430
     40 H16        -4.6270    2.4090   -4.2660 hc        1 MOL      0.056430
     41 N4         -5.9550    2.6340   -0.8700 n         1 MOL     -0.262265
     42 C14        -7.2210    1.8420   -0.5810 c3        1 MOL     -0.242076
     43 C15        -7.2150    0.3590   -0.9290 c         1 MOL      0.541753
     44 O9         -8.2850   -0.2100   -0.6760 o         1 MOL     -0.602014
     45 H17        -5.1040    2.6330   -0.3360 hn        1 MOL      0.194158
     46 H18        -7.9380    2.3810   -1.1910 h1        1 MOL      0.141944
     47 H19        -7.4600    2.0220    0.4660 h1        1 MOL      0.141944
     48 N5         -6.1660   -0.2370   -1.5450 n         1 MOL     -0.150417
     49 C16        -6.3270   -1.5400   -2.1130 c3        1 MOL     -0.075874
     50 C17        -6.3840   -2.7630   -1.1660 c         1 MOL      0.465166
     51 O10        -6.5020   -3.9000   -1.5880 o         1 MOL     -0.539502
     52 C18        -5.2690   -1.7070   -3.2540 c3        1 MOL     -0.052064
     53 C19        -3.8650   -1.9050   -2.6660 c         1 MOL      0.406397
     54 N6         -2.8420   -2.0070   -3.5420 n         1 MOL     -0.641729
     55 O11        -3.5790   -1.9900   -1.4540 o         1 MOL     -0.291976
     56 H20        -5.2750    0.2090   -1.7380 hn        1 MOL      0.157731
     57 H21        -7.2950   -1.4880   -2.6120 h1        1 MOL      0.079179
     58 H22        -5.3430   -0.8740   -3.9560 hc        1 MOL      0.041402
     59 H23        -5.5390   -2.5760   -3.8440 hc        1 MOL      0.041402
     60 H24        -3.0530   -1.9600   -4.5310 hn        1 MOL      0.323775
     61 H25        -1.8910   -2.0460   -3.2200 hn        1 MOL      0.323775
     62 N7         -6.3350   -2.5030    0.1530 n         1 MOL     -0.204291
     63 C20        -6.4750   -3.4980    1.1470 c3        1 MOL     -0.314407
     64 C21        -5.2400   -4.1840    1.6460 c         1 MOL      0.478611
     65 O12        -5.2300   -4.8730    2.6770 o         1 MOL     -0.578350
     66 H26        -6.1370   -1.5670    0.4790 hn        1 MOL      0.257085
     67 H27        -7.1500   -4.2860    0.8200 h1        1 MOL      0.140911
     68 H28        -7.0090   -2.9990    1.9500 h1        1 MOL      0.140911
     69 N8         -4.0790   -3.9500    0.9670 n         1 MOL      0.037571
     70 C22        -2.7740   -4.5270    1.2690 c3        1 MOL     -0.299709
     71 C23        -1.6400   -3.5130    1.2570 c         1 MOL      0.446340
     72 O13        -1.6660   -2.5300    0.4860 o         1 MOL     -0.409405
     73 C24        -2.4210   -5.5470    0.1620 c3        1 MOL      0.453207
     74 C25        -3.4560   -6.6910    0.0740 c3        1 MOL     -0.460587
     75 O14        -2.4330   -4.9150   -1.0950 oh        1 MOL     -0.571245
     76 H29        -4.1650   -3.2790    0.2170 hn        1 MOL      0.009604
     77 H30        -2.8010   -5.0580    2.2130 h1        1 MOL      0.129106
     78 H31        -1.4150   -5.9710    0.1900 h1        1 MOL     -0.011436
     79 H32        -1.9730   -4.0850   -0.9790 ho        1 MOL      0.337162
     80 H33        -3.3430   -7.2990    0.9780 hc        1 MOL      0.114846
     81 H34        -4.4820   -6.3110    0.1340 hc        1 MOL      0.114846
     82 H35        -3.2580   -7.2650   -0.8290 hc        1 MOL      0.114846
     83 N9         -0.5630   -3.7120    2.0540 n         1 MOL     -0.471423
     84 C26         0.6670   -2.8840    1.9690 c3        1 MOL     -0.010175
     85 C27         1.1740   -3.0720    0.4810 c         1 MOL      0.371898
     86 O15         1.2870   -4.1970    0.0090 o         1 MOL     -0.529462
     87 C28         1.6810   -3.1740    3.1260 c3        1 MOL      0.270103
     88 C29         1.1590   -3.0280    4.6090 c3        1 MOL     -0.040053
     89 C30         2.9820   -2.3660    2.9080 c3        1 MOL     -0.221561
     90 C31         1.9480   -3.8320    5.6660 c3        1 MOL     -0.103989
     91 H36        -0.5030   -4.5140    2.6760 hn        1 MOL      0.280085
     92 H37         0.3860   -1.8340    1.9720 h1        1 MOL     -0.049085
     93 H38         1.9260   -4.2360    2.9960 hc        1 MOL     -0.032795
     94 H39         0.0880   -3.1980    4.7490 hc        1 MOL      0.022086
     95 H40         1.3360   -1.9830    4.8630 hc        1 MOL      0.022086
     96 H41         3.7600   -2.9190    3.4330 hc        1 MOL      0.029702
     97 H42         3.3400   -2.3070    1.8710 hc        1 MOL      0.029702
     98 H43         2.8600   -1.3470    3.2720 hc        1 MOL      0.029702
     99 H44         3.0040   -3.5850    5.5950 hc        1 MOL      0.020426
    100 H45         1.5080   -3.6300    6.6490 hc        1 MOL      0.020426
    101 H46         1.9150   -4.9120    5.5070 hc        1 MOL      0.020426
    102 N10         1.7280   -2.0200   -0.1160 n         1 MOL     -0.131667
    103 C32         2.4880   -1.9650   -1.3410 c3        1 MOL      0.095355
    104 C33         3.9810   -1.7080   -1.0850 c         1 MOL      0.376082
    105 O16         4.3230   -1.1570   -0.0130 o         1 MOL     -0.363782
    106 C34         1.8880   -0.8640   -2.2640 c3        1 MOL     -0.239863
    107 C35         0.5170   -1.2290   -2.7390 c         1 MOL      0.703960
    108 O17        -0.4840   -1.1370   -1.9860 o         1 MOL     -0.670617
    109 O18         0.3610   -1.6750   -3.8940 o         1 MOL     -0.670617
    110 H47         1.7080   -1.1490    0.4010 hn        1 MOL      0.251720
    111 H48         2.5240   -2.8770   -1.9490 h1        1 MOL      0.043828
    112 H49         2.5220   -0.8130   -3.1510 hc        1 MOL      0.057239
    113 H50         1.8270    0.0120   -1.6120 hc        1 MOL      0.057239
    114 N11         4.8980   -1.7320   -1.9710 n         1 MOL     -0.536669
    115 C36         6.3150   -1.4070   -1.7030 c3        1 MOL      0.167208
    116 C37         6.6460    0.0340   -1.2520 c         1 MOL      0.432118
    117 O19         7.4390    0.1810   -0.3010 o         1 MOL     -0.499625
    118 C38         7.1210   -1.9680   -2.8780 c3        1 MOL     -0.103400
    119 C39         8.5480   -1.8200   -2.5980 ca        1 MOL      0.020661
    120 C40         9.1660   -2.7390   -1.7270 ca        1 MOL     -0.137318
    121 C41         9.1780   -0.6160   -2.9380 ca        1 MOL     -0.137318
    122 C42        10.4020   -2.4330   -1.2390 ca        1 MOL     -0.135057
    123 C43        10.4780   -0.3260   -2.5010 ca        1 MOL     -0.135057
    124 C44        11.0680   -1.2070   -1.5900 ca        1 MOL     -0.091410
    125 H51         4.6050   -2.1260   -2.8520 hn        1 MOL      0.322446
    126 H52         6.6090   -1.9610   -0.8100 h1        1 MOL      0.074876
    127 H53         6.7620   -1.4610   -3.7850 hc        1 MOL      0.048920
    128 H54         6.9930   -3.0170   -3.1220 hc        1 MOL      0.048920
    129 H55         8.7200   -3.6830   -1.4480 ha        1 MOL      0.112391
    130 H56         8.6010    0.1420   -3.4500 ha        1 MOL      0.112391
    131 H57        10.8370   -3.1040   -0.5150 ha        1 MOL      0.118343
    132 H58        10.8720    0.6430   -2.7600 ha        1 MOL      0.118343
    133 H59        11.9910   -0.9620   -1.0800 ha        1 MOL      0.099233
    134 N12         5.9790    1.0720   -1.7950 n         1 MOL      0.008470
    135 C45         6.2140    2.3990   -1.2800 c3        1 MOL      0.103572
    136 C46         5.7660    2.6680    0.1600 c         1 MOL      0.226716
    137 O20         6.4310    3.4290    0.8740 o         1 MOL     -0.493309
    138 C47         5.5520    3.3240   -2.2570 c3        1 MOL     -0.256281
    139 C48         4.4940    2.4930   -2.9190 c3        1 MOL     -0.005355
    140 C49         5.1420    1.1000   -2.9920 c3        1 MOL      0.006180
    141 H60         7.3050    2.4510   -1.3470 h1        1 MOL      0.029960
    142 H61         5.1140    4.1980   -1.7700 hc        1 MOL      0.090957
    143 H62         6.3390    3.6370   -2.9390 hc        1 MOL      0.090957
    144 H63         3.7110    2.4260   -2.1590 hc        1 MOL      0.050053
    145 H64         4.1390    2.7760   -3.9020 hc        1 MOL      0.050053
    146 H65         4.3830    0.3230   -2.9480 h1        1 MOL     -0.005269
    147 H66         5.8860    1.0370   -3.7830 h1        1 MOL     -0.005269
    148 N13         4.6630    2.0560    0.6000 n         1 MOL      0.004361
    149 C50         4.0570    1.9200    1.9490 c3        1 MOL     -0.191189
    150 C51         4.8720    1.1350    2.9760 c         1 MOL      0.543477
    151 O21         5.0010    1.5340    4.0990 o         1 MOL     -0.566414
    152 C52         2.6810    1.3390    1.7650 c3        1 MOL     -0.045672
    153 C53         1.7420    2.0480    0.7360 c3        1 MOL     -0.097380
    154 C54         0.3850    1.3960    0.5370 c         1 MOL      0.315073
    155 O22        -0.5470    1.9380   -0.1030 o         1 MOL     -0.552280
    156 O23         0.1350    0.2820    1.0190 o         1 MOL     -0.552280
    157 H67         4.2130    1.5030   -0.1210 hn        1 MOL      0.105111
    158 H68         3.9510    2.9320    2.3290 h1        1 MOL      0.122574
    159 H69         2.1400    1.2580    2.7040 hc        1 MOL      0.068950
    160 H70         2.8390    0.3360    1.3680 hc        1 MOL      0.068950
    161 H71         2.1990    2.0890   -0.2420 hc        1 MOL      0.063115
    162 H72         1.5910    3.0890    1.0190 hc        1 MOL      0.063115
    163 N14         5.5000    0.1140    2.4520 n         1 MOL     -0.065896
    164 C55         6.4560   -0.7220    3.2150 c3        1 MOL     -0.243479
    165 H73         6.3990   -0.4650    4.2730 h1        1 MOL      0.091155
    166 H74         6.2050   -1.7740    3.0830 h1        1 MOL      0.091155
    167 H75         7.4680   -0.5400    2.8520 h1        1 MOL      0.091155
    168 H76         5.2970   -0.1180    1.4880 hn        1 MOL      0.054882
    169 Ca1        -2.1650   -0.0390   -0.4060 Ca        1 MOL      1.598233
    170 O24        -1.6760   -0.3770    2.7710 oh        1 MOL     -0.753715
    171 H77        -1.4230   -0.0210    3.6120 ho        1 MOL      0.355783
    172 H78        -0.8880   -0.2990    2.2220 ho        1 MOL      0.355783
    173 O25        -4.0980   -0.7510    1.1790 oh        1 MOL     -0.753715
    174 H79        -3.6060   -1.0730    1.9320 ho        1 MOL      0.355783
    175 H80        -4.5350    0.0380    1.4910 ho        1 MOL      0.355783
@<TRIPOS>BOND
     1    1    2 1   
     2    1    4 1   
     3    1    5 1   
     4    1    6 1   
     5    2    3 2   
     6    2    7 1   
     7    7    8 1   
     8    7   15 1   
     9    8    9 1   
    10    8   11 1   
    11    8   16 1   
    12    9   10 2   
    13    9   19 1   
    14   11   12 1   
    15   11   17 1   
    16   11   18 1   
    17   12   13 1   
    18   12   14 1   
    19   19   20 1   
    20   19   24 1   
    21   20   21 1   
    22   20   23 1   
    23   20   25 1   
    24   21   22 2   
    25   21   29 1   
    26   23   26 1   
    27   23   27 1   
    28   23   28 1   
    29   29   30 1   
    30   29   37 1   
    31   30   31 1   
    32   30   33 1   
    33   30   38 1   
    34   31   32 2   
    35   31   41 1   
    36   33   34 1   
    37   33   39 1   
    38   33   40 1   
    39   34   35 1   
    40   34   36 1   
    41   41   42 1   
    42   41   45 1   
    43   42   43 1   
    44   42   46 1   
    45   42   47 1   
    46   43   44 2   
    47   43   48 1   
    48   48   49 1   
    49   48   56 1   
    50   49   50 1   
    51   49   52 1   
    52   49   57 1   
    53   50   51 2   
    54   50   62 1   
    55   52   53 1   
    56   52   58 1   
    57   52   59 1   
    58   53   54 1   
    59   53   55 2   
    60   54   60 1   
    61   54   61 1   
    62   62   63 1   
    63   62   66 1   
    64   63   64 1   
    65   63   67 1   
    66   63   68 1   
    67   64   65 2   
    68   64   69 1   
    69   69   70 1   
    70   69   76 1   
    71   70   71 1   
    72   70   73 1   
    73   70   77 1   
    74   71   72 2   
    75   71   83 1   
    76   73   74 1   
    77   73   75 1   
    78   73   78 1   
    79   74   80 1   
    80   74   81 1   
    81   74   82 1   
    82   75   79 1   
    83   83   84 1   
    84   83   91 1   
    85   84   85 1   
    86   84   87 1   
    87   84   92 1   
    88   85   86 2   
    89   85  102 1   
    90   87   88 1   
    91   87   89 1   
    92   87   93 1   
    93   88   90 1   
    94   88   94 1   
    95   88   95 1   
    96   89   96 1   
    97   89   97 1   
    98   89   98 1   
    99   90   99 1   
   100   90  100 1   
   101   90  101 1   
   102  102  103 1   
   103  102  110 1   
   104  103  104 1   
   105  103  106 1   
   106  103  111 1   
   107  104  105 2   
   108  104  114 1   
   109  106  107 1   
   110  106  112 1   
   111  106  113 1   
   112  107  108 1   
   113  107  109 1   
   114  114  115 1   
   115  114  125 1   
   116  115  116 1   
   117  115  118 1   
   118  115  126 1   
   119  116  117 2   
   120  116  134 1   
   121  118  119 1   
   122  118  127 1   
   123  118  128 1   
   124  119  120 ar  
   125  119  121 ar  
   126  120  122 ar  
   127  120  129 1   
   128  121  123 ar  
   129  121  130 1   
   130  122  124 ar  
   131  122  131 1   
   132  123  124 ar  
   133  123  132 1   
   134  124  133 1   
   135  134  135 1   
   136  134  140 1   
   137  135  136 1   
   138  135  138 1   
   139  135  141 1   
   140  136  137 2   
   141  136  148 1   
   142  138  139 1   
   143  138  142 1   
   144  138  143 1   
   145  139  140 1   
   146  139  144 1   
   147  139  145 1   
   148  140  146 1   
   149  140  147 1   
   150  148  149 1   
   151  148  157 1   
   152  149  150 1   
   153  149  152 1   
   154  149  158 1   
   155  150  151 2   
   156  150  163 1   
   157  152  153 1   
   158  152  159 1   
   159  152  160 1   
   160  153  154 1   
   161  153  161 1   
   162  153  162 1   
   163  154  155 1   
   164  154  156 1   
   165  163  164 1   
   166  163  168 1   
   167  164  165 1   
   168  164  166 1   
   169  164  167 1   
   170  170  171 1   
   171  170  172 1   
   172  173  174 1   
   173  173  175 1   
@<TRIPOS>SUBSTRUCTURE
     1 MOL         1 TEMP              0 ****  ****    0 ROOT
