@<TRIPOS>MOLECULE
MOL
  186   183     1     0     0
SMALL
resp


@<TRIPOS>ATOM
      1 C1         -0.6010    3.0300    5.7690 c3        1 MOL     -0.431514
      2 C2         -1.0920    2.5960    4.4150 c         1 MOL      0.752548
      3 O1         -0.3540    2.9740    3.4540 o         1 MOL     -0.616687
      4 H1         -1.3040    2.6990    6.5330 hc        1 MOL      0.105043
      5 H2          0.3780    2.5900    5.9610 hc        1 MOL      0.105043
      6 H3         -0.5220    4.1170    5.7970 hc        1 MOL      0.105043
      7 N1         -2.2520    2.0310    4.1930 n         1 MOL     -0.634410
      8 C3         -2.7720    1.8110    2.8750 c3        1 MOL      0.443395
      9 C4         -3.2290    3.1990    2.2990 c         1 MOL      0.312016
     10 O2         -4.2340    3.8450    2.7600 o         1 MOL     -0.539586
     11 C5         -3.8510    0.7520    3.0700 c3        1 MOL     -0.510725
     12 C6         -4.6650    0.4210    1.8370 c         1 MOL      0.847700
     13 O3         -5.8490    0.0070    2.0640 o         1 MOL     -0.655849
     14 O4         -4.2160    0.7460    0.7310 o         1 MOL     -0.655849
     15 H4         -2.7320    1.6410    4.9990 hn        1 MOL      0.324995
     16 H5         -1.9930    1.4140    2.2310 h1        1 MOL     -0.025777
     17 H6         -4.5600    1.2350    3.7460 hc        1 MOL      0.079982
     18 H7         -3.3960   -0.1890    3.3720 hc        1 MOL      0.079982
     19 N2         -2.5670    3.6300    1.2180 n         1 MOL     -0.006322
     20 C7         -2.8770    4.9560    0.7060 c3        1 MOL     -0.028187
     21 C8         -4.0930    4.9940   -0.2500 c         1 MOL      0.276197
     22 O5         -4.8650    5.9210   -0.2580 o         1 MOL     -0.529962
     23 C9         -1.6520    5.6740    0.1200 c3        1 MOL      0.288514
     24 C10        -1.1460    5.0770   -1.2130 c3        1 MOL      0.044737
     25 C11        -0.5080    5.8470    1.1560 c3        1 MOL     -0.398063
     26 C12        -0.4770    6.2050   -2.0020 c3        1 MOL     -0.149557
     27 H8         -1.9630    3.0520    0.6500 hn        1 MOL      0.016670
     28 H9         -3.1500    5.6150    1.5280 h1        1 MOL      0.064727
     29 H10        -1.9150    6.7240    0.0540 hc        1 MOL     -0.063513
     30 H11        -1.9640    4.7040   -1.8240 hc        1 MOL      0.017316
     31 H12        -0.3370    4.3880   -0.9760 hc        1 MOL      0.017316
     32 H13        -0.8520    6.2330    2.1090 hc        1 MOL      0.097476
     33 H14        -0.0970    4.8720    1.4120 hc        1 MOL      0.097476
     34 H15         0.3250    6.4100    0.7240 hc        1 MOL      0.097476
     35 H16         0.1770    5.7600   -2.7520 hc        1 MOL      0.016545
     36 H17        -1.2230    6.7690   -2.5650 hc        1 MOL      0.016545
     37 H18         0.1870    6.8510   -1.4220 hc        1 MOL      0.016545
     38 N3         -4.3240    3.9090   -1.0520 n         1 MOL     -0.038065
     39 C13        -5.3360    3.7970   -2.1230 c3        1 MOL     -0.024413
     40 C14        -6.5570    2.8970   -1.9310 c         1 MOL      0.478736
     41 O6         -7.3870    2.6330   -2.8440 o         1 MOL     -0.532145
     42 C15        -4.5710    3.2640   -3.4550 c3        1 MOL     -0.305218
     43 C16        -3.7000    1.9710   -3.3440 c         1 MOL      0.753070
     44 O7         -2.8050    1.7330   -4.1960 o         1 MOL     -0.680926
     45 O8         -3.8220    1.2040   -2.3840 o         1 MOL     -0.680926
     46 H19        -3.7800    3.0800   -0.8780 hn        1 MOL      0.147065
     47 H20        -5.8230    4.7670   -2.1440 h1        1 MOL      0.085547
     48 H21        -3.9670    4.0940   -3.8520 hc        1 MOL      0.069037
     49 H22        -5.2560    3.1580   -4.2990 hc        1 MOL      0.069037
     50 N4         -6.7000    2.4630   -0.6650 n         1 MOL     -0.348837
     51 C17        -7.8780    1.6540   -0.1210 c3        1 MOL     -0.254086
     52 C18        -8.1800    0.3920   -0.9230 c         1 MOL      0.525883
     53 O9         -9.3740    0.0410   -1.1840 o         1 MOL     -0.602624
     54 H23        -5.9010    2.5470   -0.0560 hn        1 MOL      0.270926
     55 H24        -8.7480    2.3010   -0.2380 h1        1 MOL      0.131475
     56 H25        -7.6970    1.4410    0.9370 h1        1 MOL      0.131475
     57 N5         -7.1390   -0.4040   -1.1040 n         1 MOL     -0.174383
     58 C19        -7.2530   -1.8380   -1.5510 c3        1 MOL     -0.066362
     59 C20        -7.2310   -2.8860   -0.4380 c         1 MOL      0.347837
     60 O10        -7.5150   -4.0610   -0.6500 o         1 MOL     -0.507655
     61 C21        -6.1180   -2.1710   -2.5880 c3        1 MOL     -0.145557
     62 C22        -4.6560   -2.0000   -2.0340 c         1 MOL      0.778149
     63 O11        -4.5080   -1.7470   -0.8180 o         1 MOL     -0.787099
     64 O12        -3.6900   -2.1570   -2.7530 o         1 MOL     -0.787099
     65 H26        -6.2630   -0.1010   -0.7040 hn        1 MOL      0.122458
     66 H27        -8.1650   -1.9650   -2.1300 h1        1 MOL      0.123856
     67 H28        -6.1800   -1.4880   -3.4310 hc        1 MOL      0.053789
     68 H29        -6.2930   -3.1700   -2.9850 hc        1 MOL      0.053789
     69 N6         -6.9750   -2.4620    0.8140 n         1 MOL     -0.057290
     70 C23        -6.8060   -3.3710    1.9480 c3        1 MOL     -0.173190
     71 C24        -5.5060   -4.1280    2.1090 c         1 MOL      0.636532
     72 O13        -5.3790   -5.2010    2.7200 o         1 MOL     -0.581159
     73 H30        -6.8330   -1.4760    0.9960 hn        1 MOL      0.164618
     74 H31        -7.5650   -4.1410    1.7940 h1        1 MOL      0.052015
     75 H32        -6.9710   -2.7450    2.8320 h1        1 MOL      0.052015
     76 N7         -4.4340   -3.5920    1.4260 n         1 MOL     -0.304927
     77 C25        -3.0730   -4.1230    1.7300 c3        1 MOL     -0.043626
     78 C26        -1.9600   -3.0310    1.7540 c         1 MOL      0.572571
     79 O14        -2.2040   -1.9690    1.1340 o         1 MOL     -0.621837
     80 C27        -2.8360   -5.2420    0.6870 c3        1 MOL     -0.337092
     81 C28        -2.8700   -4.9150   -0.8260 c3        1 MOL     -0.239289
     82 C29        -2.9150   -5.9950   -1.9320 c         1 MOL      0.636429
     83 N8         -2.6140   -5.6640   -3.1720 n         1 MOL     -0.777838
     84 O15        -3.2770   -7.1630   -1.7080 o         1 MOL     -0.576542
     85 H33        -4.5910   -2.7790    0.8320 hn        1 MOL      0.227440
     86 H34        -3.0270   -4.6150    2.6930 h1        1 MOL      0.053485
     87 H35        -3.6120   -5.9600    0.9550 hc        1 MOL      0.122601
     88 H36        -1.8730   -5.6720    0.9590 hc        1 MOL      0.122601
     89 H37        -2.0530   -4.2100   -0.9860 hc        1 MOL      0.172216
     90 H38        -3.7610   -4.3500   -1.0620 hc        1 MOL      0.172216
     91 H39        -2.2470   -4.7320   -3.3310 hn        1 MOL      0.358820
     92 H40        -2.6060   -6.3570   -3.9010 hn        1 MOL      0.358820
     93 N9         -0.8110   -3.2530    2.4060 n         1 MOL     -0.375098
     94 C30         0.3770   -2.3080    2.3070 c3        1 MOL      0.198994
     95 C31         1.5130   -2.9270    1.4480 c         1 MOL      0.284822
     96 O16         2.1930   -3.9250    1.8350 o         1 MOL     -0.521851
     97 C32         0.8970   -1.9360    3.6820 c3        1 MOL      0.014912
     98 C33         2.1040   -0.9730    3.7450 c3        1 MOL     -0.137781
     99 C34        -0.1520   -1.2820    4.5940 c3        1 MOL     -0.137781
    100 H41        -0.7360   -4.1720    2.8150 hn        1 MOL      0.267790
    101 H42         0.0960   -1.3500    1.8710 h1        1 MOL      0.119366
    102 H43         1.2950   -2.8520    4.1260 hc        1 MOL      0.003140
    103 H44         2.8420   -1.3600    3.0450 hc        1 MOL      0.025504
    104 H45         1.9040    0.0240    3.3540 hc        1 MOL      0.025504
    105 H46         2.5330   -0.9600    4.7430 hc        1 MOL      0.025504
    106 H47        -0.9780   -1.9920    4.6560 hc        1 MOL      0.025504
    107 H48         0.2180   -1.0750    5.6040 hc        1 MOL      0.025504
    108 H49        -0.4890   -0.2890    4.3030 hc        1 MOL      0.025504
    109 N10         1.8580   -2.2140    0.3170 n         1 MOL     -0.048769
    110 C35         2.9720   -2.4310   -0.5070 c3        1 MOL      0.251686
    111 C36         4.2710   -1.9880    0.1900 c         1 MOL      0.126502
    112 O17         4.1930   -1.0560    0.9680 o         1 MOL     -0.099059
    113 C37         2.7360   -1.7990   -1.8620 c3        1 MOL     -0.462548
    114 C38         3.8950   -1.9620   -2.8420 c         1 MOL      0.671065
    115 N11         4.0840   -0.8920   -3.5970 n         1 MOL     -0.662777
    116 O18         4.6000   -2.9080   -2.8430 o         1 MOL     -0.557402
    117 H50         1.2190   -1.4820    0.0090 hn        1 MOL     -0.018615
    118 H51         3.1440   -3.5050   -0.6160 h1        1 MOL      0.009376
    119 H52         2.5590   -0.7310   -1.7250 hc        1 MOL      0.133082
    120 H53         1.8920   -2.2950   -2.3440 hc        1 MOL      0.133082
    121 H54         3.3540   -0.2030   -3.5550 hn        1 MOL      0.332410
    122 H55         4.7470   -0.8780   -4.3520 hn        1 MOL      0.332410
    123 N12         5.4780   -2.3920   -0.2400 n         1 MOL     -0.335080
    124 C39         6.7660   -1.8760    0.2580 c3        1 MOL      0.086323
    125 C40         6.8840   -0.3420    0.1040 c         1 MOL      0.575614
    126 O19         7.3490    0.3100    0.9880 o         1 MOL     -0.553709
    127 C41         7.9660   -2.5330   -0.5320 c3        1 MOL     -0.156438
    128 C42         9.3530   -1.8950   -0.1650 ca        1 MOL     -0.025918
    129 C43         9.9440   -2.3620    1.1060 ca        1 MOL     -0.123056
    130 C44         9.9490   -0.9400   -0.9250 ca        1 MOL     -0.123056
    131 C45        11.1930   -1.7600    1.5360 ca        1 MOL     -0.309278
    132 C46        11.1310   -0.3200   -0.4000 ca        1 MOL     -0.309278
    133 C47        11.7260   -0.6900    0.8130 ca        1 MOL      0.415561
    134 O20        12.7870   -0.0750    1.3080 oh        1 MOL     -0.519777
    135 H56         5.5200   -3.0490   -1.0070 hn        1 MOL      0.251746
    136 H57         6.8130   -2.1520    1.3150 h1        1 MOL      0.058572
    137 H58         7.8140   -2.4030   -1.6040 hc        1 MOL      0.064815
    138 H59         7.9610   -3.5890   -0.2720 hc        1 MOL      0.064815
    139 H60         9.3820   -3.1230    1.6140 ha        1 MOL      0.136874
    140 H61         9.4180   -0.6030   -1.7960 ha        1 MOL      0.136874
    141 H62        11.7580   -2.1270    2.3840 ha        1 MOL      0.145066
    142 H63        11.4690    0.5920   -0.8700 ha        1 MOL      0.145066
    143 H64        13.1250    0.6040    0.7270 ho        1 MOL      0.374118
    144 N13         6.4290    0.1960   -0.9950 n         1 MOL     -0.120658
    145 C48         6.3760    1.6570   -1.1670 c3        1 MOL     -0.020401
    146 C49         5.4130    2.3970   -0.2350 c         1 MOL      0.347707
    147 O21         5.7400    3.4440    0.2870 o         1 MOL     -0.509354
    148 C50         6.1230    1.9760   -2.6770 c3        1 MOL      0.051355
    149 C51         7.3920    1.7870   -3.5410 c3        1 MOL     -0.310323
    150 C52         7.0100    1.5030   -5.0620 c         1 MOL      0.765833
    151 O22         6.9740    0.2950   -5.3790 o         1 MOL     -0.734968
    152 O23         6.8780    2.4020   -5.8900 o         1 MOL     -0.734968
    153 H65         6.0720   -0.3710   -1.7450 hn        1 MOL      0.171654
    154 H66         7.3510    2.1100   -0.9660 h1        1 MOL      0.066348
    155 H67         5.6740    2.9620   -2.7460 hc        1 MOL      0.009440
    156 H68         5.3860    1.2550   -3.0360 hc        1 MOL      0.009440
    157 H69         7.8050    0.8770   -3.0920 hc        1 MOL      0.041012
    158 H70         8.0510    2.6480   -3.4360 hc        1 MOL      0.041012
    159 N14         4.2940    1.8200    0.1430 n         1 MOL     -0.173240
    160 C53         3.5070    2.2810    1.3220 c3        1 MOL     -0.107026
    161 C54         4.1530    1.9530    2.7080 c         1 MOL      0.484992
    162 O24         4.0280    2.7550    3.6540 o         1 MOL     -0.570104
    163 C55         2.0940    1.6640    1.1760 c3        1 MOL      0.068480
    164 C56         1.2820    2.2620    0.0650 c3        1 MOL     -0.152008
    165 C57        -0.0070    1.3680   -0.2620 c         1 MOL      0.840656
    166 O25        -1.1140    1.9270   -0.4190 o         1 MOL     -0.766858
    167 O26         0.0750    0.1160   -0.2290 o         1 MOL     -0.766858
    168 H71         4.1120    0.8750   -0.1760 hn        1 MOL      0.071708
    169 H72         3.5130    3.3630    1.2520 h1        1 MOL      0.114386
    170 H73         1.5740    1.8410    2.1180 hc        1 MOL      0.050615
    171 H74         2.2260    0.5820    1.0800 hc        1 MOL      0.050615
    172 H75         1.8840    2.1990   -0.8430 hc        1 MOL      0.027311
    173 H76         1.0870    3.3180    0.2620 hc        1 MOL      0.027311
    174 N15         4.9300    0.8660    2.8860 n         1 MOL     -0.020485
    175 C58         5.5550    0.4750    4.1220 c3        1 MOL     -0.248370
    176 H77         4.7880    0.1870    4.8410 h1        1 MOL      0.088719
    177 H78         6.2200   -0.3700    3.9410 h1        1 MOL      0.088719
    178 H79         6.1290    1.3120    4.5200 h1        1 MOL      0.088719
    179 H80         4.9070    0.1660    2.1650 hn        1 MOL     -0.039954
    180 Ca1        -2.4580   -0.3630   -0.9230 Ca        1 MOL      1.751670
    181 O27        -0.6730   -2.2150   -1.3950 oh        1 MOL     -0.876794
    182 H81        -0.4960   -2.9510   -1.9790 ho        1 MOL      0.397003
    183 H82         0.0450   -1.6020   -1.5420 ho        1 MOL      0.397003
    184 O28        -1.6180   -0.2920   -3.3700 oh        1 MOL     -0.876794
    185 H83        -2.1670   -1.0600   -3.4570 ho        1 MOL      0.397003
    186 H84        -2.0750    0.3940   -3.8550 ho        1 MOL      0.397003
@<TRIPOS>BOND
     1    1    2 1   
     2    1    4 1   
     3    1    5 1   
     4    1    6 1   
     5    2    3 2   
     6    2    7 1   
     7    7    8 1   
     8    7   15 1   
     9    8    9 1   
    10    8   11 1   
    11    8   16 1   
    12    9   10 2   
    13    9   19 1   
    14   11   12 1   
    15   11   17 1   
    16   11   18 1   
    17   12   13 1   
    18   12   14 1   
    19   19   20 1   
    20   19   27 1   
    21   20   21 1   
    22   20   23 1   
    23   20   28 1   
    24   21   22 2   
    25   21   38 1   
    26   23   24 1   
    27   23   25 1   
    28   23   29 1   
    29   24   26 1   
    30   24   30 1   
    31   24   31 1   
    32   25   32 1   
    33   25   33 1   
    34   25   34 1   
    35   26   35 1   
    36   26   36 1   
    37   26   37 1   
    38   38   39 1   
    39   38   46 1   
    40   39   40 1   
    41   39   42 1   
    42   39   47 1   
    43   40   41 2   
    44   40   50 1   
    45   42   43 1   
    46   42   48 1   
    47   42   49 1   
    48   43   44 1   
    49   43   45 1   
    50   50   51 1   
    51   50   54 1   
    52   51   52 1   
    53   51   55 1   
    54   51   56 1   
    55   52   53 2   
    56   52   57 1   
    57   57   58 1   
    58   57   65 1   
    59   58   59 1   
    60   58   61 1   
    61   58   66 1   
    62   59   60 2   
    63   59   69 1   
    64   61   62 1   
    65   61   67 1   
    66   61   68 1   
    67   62   63 1   
    68   62   64 1   
    69   69   70 1   
    70   69   73 1   
    71   70   71 1   
    72   70   74 1   
    73   70   75 1   
    74   71   72 2   
    75   71   76 1   
    76   76   77 1   
    77   76   85 1   
    78   77   78 1   
    79   77   80 1   
    80   77   86 1   
    81   78   79 2   
    82   78   93 1   
    83   80   81 1   
    84   80   87 1   
    85   80   88 1   
    86   81   82 1   
    87   81   89 1   
    88   81   90 1   
    89   82   83 1   
    90   82   84 2   
    91   83   91 1   
    92   83   92 1   
    93   93   94 1   
    94   93  100 1   
    95   94   95 1   
    96   94   97 1   
    97   94  101 1   
    98   95   96 2   
    99   95  109 1   
   100   97   98 1   
   101   97   99 1   
   102   97  102 1   
   103   98  103 1   
   104   98  104 1   
   105   98  105 1   
   106   99  106 1   
   107   99  107 1   
   108   99  108 1   
   109  109  110 1   
   110  109  117 1   
   111  110  111 1   
   112  110  113 1   
   113  110  118 1   
   114  111  112 2   
   115  111  123 1   
   116  113  114 1   
   117  113  119 1   
   118  113  120 1   
   119  114  115 1   
   120  114  116 2   
   121  115  121 1   
   122  115  122 1   
   123  123  124 1   
   124  123  135 1   
   125  124  125 1   
   126  124  127 1   
   127  124  136 1   
   128  125  126 2   
   129  125  144 1   
   130  127  128 1   
   131  127  137 1   
   132  127  138 1   
   133  128  129 ar  
   134  128  130 ar  
   135  129  131 ar  
   136  129  139 1   
   137  130  132 ar  
   138  130  140 1   
   139  131  133 ar  
   140  131  141 1   
   141  132  133 ar  
   142  132  142 1   
   143  133  134 1   
   144  134  143 1   
   145  144  145 1   
   146  144  153 1   
   147  145  146 1   
   148  145  148 1   
   149  145  154 1   
   150  146  147 2   
   151  146  159 1   
   152  148  149 1   
   153  148  155 1   
   154  148  156 1   
   155  149  150 1   
   156  149  157 1   
   157  149  158 1   
   158  150  151 1   
   159  150  152 1   
   160  159  160 1   
   161  159  168 1   
   162  160  161 1   
   163  160  163 1   
   164  160  169 1   
   165  161  162 2   
   166  161  174 1   
   167  163  164 1   
   168  163  170 1   
   169  163  171 1   
   170  164  165 1   
   171  164  172 1   
   172  164  173 1   
   173  165  166 1   
   174  165  167 1   
   175  174  175 1   
   176  174  179 1   
   177  175  176 1   
   178  175  177 1   
   179  175  178 1   
   180  181  182 1   
   181  181  183 1   
   182  184  185 1   
   183  184  186 1   
@<TRIPOS>SUBSTRUCTURE
     1 MOL         1 TEMP              0 ****  ****    0 ROOT
