@<TRIPOS>MOLECULE
MOL
  189   185     1     0     0
SMALL
resp


@<TRIPOS>ATOM
      1 C1          0.0860   -3.9600    5.7710 c3        1 MOL     -0.355085
      2 C2          0.7220   -3.4220    4.4350 c         1 MOL      0.754002
      3 O1          0.7780   -2.2220    4.2660 o         1 MOL     -0.579485
      4 H1          0.3820   -4.9980    5.9220 hc        1 MOL      0.088448
      5 H2          0.4380   -3.3580    6.6090 hc        1 MOL      0.088448
      6 H3         -1.0000   -3.8970    5.7080 hc        1 MOL      0.088448
      7 N1          1.3910   -4.2920    3.6210 n         1 MOL     -0.688633
      8 C3          2.1430   -3.8380    2.3860 c3        1 MOL      0.225170
      9 C4          2.2090   -4.9230    1.2650 c         1 MOL      0.438725
     10 O2          2.4210   -6.1300    1.5300 o         1 MOL     -0.569805
     11 C5          3.5740   -3.5240    2.8600 c3        1 MOL     -0.110459
     12 C6          4.3990   -2.7770    1.8120 c         1 MOL      0.606298
     13 O3          5.6880   -2.8420    1.8330 o         1 MOL     -0.680589
     14 O4          3.8360   -2.1310    0.8840 o         1 MOL     -0.680589
     15 H4          1.6270   -5.2260    3.8960 hn        1 MOL      0.330955
     16 H5          1.7360   -2.9080    1.9830 h1        1 MOL      0.038166
     17 H6          4.1390   -4.4310    3.0650 hc        1 MOL      0.032441
     18 H7          3.6830   -3.0280    3.8280 hc        1 MOL      0.032441
     19 N2          1.9850   -4.4550    0.0340 n         1 MOL     -0.233437
     20 C7          2.1750   -5.2920   -1.1750 c3        1 MOL     -0.030281
     21 C8          3.4680   -4.9920   -2.0100 c         1 MOL      0.561870
     22 O5          3.8870   -5.8450   -2.7750 o         1 MOL     -0.590294
     23 C9          0.8840   -5.2900   -2.0070 c3        1 MOL      0.162022
     24 C10        -0.4400   -5.3210   -1.1910 c3        1 MOL     -0.083427
     25 C11         0.8540   -6.4280   -2.9950 c3        1 MOL     -0.400734
     26 C12        -1.6410   -4.7730   -1.9100 c3        1 MOL     -0.149753
     27 H8          1.7030   -3.4920   -0.0320 hn        1 MOL      0.206522
     28 H9          2.3630   -6.2920   -0.7610 h1        1 MOL      0.056218
     29 H10         1.0050   -4.3050   -2.4530 hc        1 MOL      0.030490
     30 H11        -0.3150   -4.7390   -0.2810 hc        1 MOL      0.046218
     31 H12        -0.7380   -6.3350   -0.9120 hc        1 MOL      0.046218
     32 H13        -0.1160   -6.7590   -3.3640 hc        1 MOL      0.093715
     33 H14         1.3450   -6.0780   -3.9020 hc        1 MOL      0.093715
     34 H15         1.3300   -7.3560   -2.6760 hc        1 MOL      0.093715
     35 H16        -1.9100   -5.3180   -2.8140 hc        1 MOL      0.033013
     36 H17        -2.5000   -4.8550   -1.2470 hc        1 MOL      0.033013
     37 H18        -1.4970   -3.7360   -2.2160 hc        1 MOL      0.033013
     38 N3          4.0020   -3.7720   -1.9800 n         1 MOL     -0.360500
     39 C13         4.7850   -3.2380   -3.0710 c3        1 MOL      0.143980
     40 C14         6.1300   -2.6330   -2.6750 c         1 MOL      0.247730
     41 O6          7.0320   -2.3640   -3.4430 o         1 MOL     -0.508321
     42 C15         4.0230   -2.1580   -3.8960 c3        1 MOL     -0.292397
     43 C16         3.2340   -1.1120   -3.1590 c         1 MOL      0.707890
     44 O7          3.3140   -1.0790   -1.8950 o         1 MOL     -0.704653
     45 O8          2.4280   -0.3390   -3.7450 o         1 MOL     -0.704653
     46 H19         3.5050   -3.0480   -1.4630 hn        1 MOL      0.263003
     47 H20         4.9950   -4.0320   -3.7880 h1        1 MOL      0.078589
     48 H21         3.3920   -2.7160   -4.5920 hc        1 MOL      0.070947
     49 H22         4.7060   -1.5400   -4.4890 hc        1 MOL      0.070947
     50 N4          6.2800   -2.4920   -1.3290 n         1 MOL     -0.076376
     51 C17         7.4640   -1.8220   -0.7690 c3        1 MOL     -0.001246
     52 C18         7.6940   -0.3670   -1.2020 c         1 MOL      0.356614
     53 O9          8.8340    0.1560   -1.1820 o         1 MOL     -0.586791
     54 H23         5.5850   -2.9770   -0.7770 hn        1 MOL      0.115854
     55 H24         8.3250   -2.4410   -1.0280 h1        1 MOL      0.049184
     56 H25         7.4270   -1.8530    0.3200 h1        1 MOL      0.049184
     57 N5          6.6810    0.4020   -1.5590 n         1 MOL     -0.023808
     58 C19         6.7980    1.8030   -2.0840 c3        1 MOL     -0.012056
     59 C20         7.1740    2.8880   -1.0540 c         1 MOL      0.461699
     60 O10         7.9090    3.8100   -1.4220 o         1 MOL     -0.574791
     61 C21         5.5080    2.1640   -2.8720 c3        1 MOL     -0.423123
     62 C22         4.2590    2.1060   -2.0810 c         1 MOL      0.852042
     63 O11         4.2710    1.6870   -0.8840 o         1 MOL     -0.688620
     64 O12         3.2230    2.6290   -2.5930 o         1 MOL     -0.688620
     65 H26         5.7550    0.1410   -1.2670 hn        1 MOL      0.085909
     66 H27         7.5350    1.8290   -2.8930 h1        1 MOL      0.095831
     67 H28         5.4010    1.5310   -3.7360 hc        1 MOL      0.126111
     68 H29         5.6660    3.1500   -3.3150 hc        1 MOL      0.126111
     69 N6          6.7980    2.7290    0.2010 n         1 MOL     -0.229273
     70 C23         6.8390    3.5980    1.4300 c3        1 MOL     -0.132687
     71 C24         5.5130    4.3310    1.6470 c         1 MOL      0.575641
     72 O13         5.4340    5.0520    2.6240 o         1 MOL     -0.613492
     73 H30         6.1740    1.9410    0.2380 hn        1 MOL      0.152585
     74 H31         7.5980    4.3570    1.2530 h1        1 MOL      0.099983
     75 H32         7.1690    3.0210    2.2820 h1        1 MOL      0.099983
     76 N7          4.4970    4.2310    0.8120 n         1 MOL     -0.374583
     77 C25         3.1700    4.7630    1.0710 c3        1 MOL      0.229539
     78 C26         2.2950    3.6400    1.5240 c         1 MOL      0.528092
     79 O14         2.7390    2.4750    1.5320 o         1 MOL     -0.577908
     80 C27         2.5570    5.4110   -0.2150 c3        1 MOL      0.045556
     81 C28         3.3260    6.6460   -0.8620 c3        1 MOL     -0.304622
     82 C29         2.3850    7.3330   -1.8400 c         1 MOL      0.690438
     83 N8          2.2530    6.9160   -3.0910 n         1 MOL     -0.775263
     84 O15         1.7450    8.2670   -1.4710 o         1 MOL     -0.581587
     85 H33         4.5440    3.4980    0.1190 hn        1 MOL      0.221312
     86 H34         3.1420    5.5010    1.8730 h1        1 MOL      0.044311
     87 H35         1.5790    5.8380   -0.0110 hc        1 MOL      0.025586
     88 H36         2.5000    4.6860   -1.0250 hc        1 MOL      0.025586
     89 H37         4.2320    6.2690   -1.3400 hc        1 MOL      0.064231
     90 H38         3.5360    7.2850   -0.0060 hc        1 MOL      0.064231
     91 H39         2.7890    6.1690   -3.4960 hn        1 MOL      0.353605
     92 H40         1.6540    7.4420   -3.7030 hn        1 MOL      0.353605
     93 N9          1.0520    3.9180    1.9060 n         1 MOL     -0.701002
     94 C30        -0.0120    2.9560    2.2700 c3        1 MOL      0.205951
     95 C31        -1.1400    3.1790    1.3230 c         1 MOL      0.398586
     96 O16        -1.6310    4.2700    1.0650 o         1 MOL     -0.554004
     97 C32        -0.3820    3.0750    3.7220 c3        1 MOL      0.268196
     98 C33        -1.6520    2.3990    4.1440 c3        1 MOL     -0.286848
     99 C34         0.7720    2.4980    4.5290 c3        1 MOL     -0.286848
    100 H41         0.8320    4.9140    1.8730 hn        1 MOL      0.295443
    101 H42         0.4350    1.9740    2.1240 h1        1 MOL      0.185611
    102 H43        -0.6320    4.0920    4.0260 hc        1 MOL     -0.031212
    103 H44        -1.6220    1.3110    4.0480 hc        1 MOL      0.056731
    104 H45        -1.8570    2.5200    5.2010 hc        1 MOL      0.056731
    105 H46        -2.4470    2.7920    3.5010 hc        1 MOL      0.056731
    106 H47         0.8560    1.4280    4.3380 hc        1 MOL      0.056731
    107 H48         1.7250    3.0130    4.4170 hc        1 MOL      0.056731
    108 H49         0.5210    2.6410    5.5820 hc        1 MOL      0.056731
    109 N10        -1.5390    2.0620    0.7180 n         1 MOL     -0.007073
    110 C35        -2.6440    1.9400   -0.1780 c3        1 MOL     -0.076399
    111 C36        -3.9710    1.8690    0.5470 c         1 MOL      0.356944
    112 O17        -4.0530    1.3870    1.6860 o         1 MOL     -0.273252
    113 C37        -2.3730    0.6600   -1.0530 c3        1 MOL     -0.056028
    114 C38        -3.0720    0.5290   -2.4330 c         1 MOL      0.584104
    115 N11        -2.6120   -0.4020   -3.2410 n         1 MOL     -0.753184
    116 O18        -4.0490    1.2480   -2.6930 o         1 MOL     -0.574392
    117 H50        -0.9000    1.2860    0.7880 hn        1 MOL     -0.095831
    118 H51        -2.7160    2.8200   -0.8140 h1        1 MOL      0.079931
    119 H52        -2.4950   -0.2830   -0.5240 hc        1 MOL      0.058155
    120 H53        -1.3280    0.6450   -1.3750 hc        1 MOL      0.058155
    121 H54        -1.7310   -0.8410   -3.0310 hn        1 MOL      0.384561
    122 H55        -3.0960   -0.6050   -4.1020 hn        1 MOL      0.384561
    123 N12        -4.9950    2.2580   -0.1810 n         1 MOL     -0.395180
    124 C39        -6.4050    2.0250    0.0450 c3        1 MOL      0.178829
    125 C40        -6.6430    0.4820    0.3550 c         1 MOL      0.348489
    126 O19        -7.3440    0.0470    1.2150 o         1 MOL     -0.498330
    127 C41        -7.0700    2.5410   -1.2470 c3        1 MOL     -0.253714
    128 C42        -8.5820    2.3970   -1.5730 ca        1 MOL      0.265353
    129 C43        -9.5530    3.1410   -0.7890 ca        1 MOL     -0.360943
    130 C44        -9.0820    1.6180   -2.6320 ca        1 MOL     -0.360943
    131 C45       -10.9540    3.0350   -1.0620 ca        1 MOL     -0.066848
    132 C46       -10.4900    1.4590   -2.8790 ca        1 MOL     -0.066848
    133 C47       -11.3660    2.3080   -2.2260 ca        1 MOL      0.186953
    134 O20       -12.6750    2.2060   -2.4660 oh        1 MOL     -0.539352
    135 H56        -4.8020    2.5740   -1.1200 hn        1 MOL      0.263361
    136 H57        -6.7080    2.6080    0.9110 h1        1 MOL      0.038020
    137 H58        -6.5140    2.2800   -2.1470 hc        1 MOL      0.081255
    138 H59        -6.9940    3.6290   -1.2090 hc        1 MOL      0.081255
    139 H60        -9.2280    3.6960    0.0870 ha        1 MOL      0.164635
    140 H61        -8.4050    1.0560   -3.2550 ha        1 MOL      0.164635
    141 H62       -11.6230    3.7230   -0.5640 ha        1 MOL      0.101859
    142 H63       -10.8190    0.8030   -3.6730 ha        1 MOL      0.101859
    143 H64       -12.8060    1.3780   -2.9330 ho        1 MOL      0.406396
    144 N13        -6.0640   -0.3490   -0.5040 n         1 MOL     -0.015733
    145 C48        -6.0850   -1.8420   -0.3010 c3        1 MOL     -0.393793
    146 C49        -5.1850   -2.3110    0.9550 c         1 MOL      0.562488
    147 O21        -5.3970   -3.4280    1.4880 o         1 MOL     -0.546773
    148 C50        -5.7670   -2.5510   -1.6530 c3        1 MOL      0.116877
    149 C51        -6.6630   -2.1170   -2.7910 c3        1 MOL     -0.105931
    150 C52        -8.0620   -2.6570   -2.4510 c         1 MOL      0.680070
    151 O22        -9.0310   -2.2760   -3.1420 o         1 MOL     -0.705836
    152 O23        -8.2350   -3.6960   -1.7790 o         1 MOL     -0.705836
    153 H65        -5.7510    0.0030   -1.3940 hn        1 MOL      0.217608
    154 H66        -7.0880   -2.1380    0.0120 h1        1 MOL      0.181408
    155 H67        -5.7340   -3.6180   -1.4760 hc        1 MOL      0.008348
    156 H68        -4.7230   -2.3670   -1.9010 hc        1 MOL      0.008348
    157 H69        -6.1980   -2.5650   -3.6660 hc        1 MOL     -0.018280
    158 H70        -6.6390   -1.0490   -3.0110 hc        1 MOL     -0.018280
    159 N14        -4.3020   -1.4650    1.4680 n         1 MOL     -0.168939
    160 C53        -3.4920   -1.8030    2.6090 c3        1 MOL     -0.028284
    161 C54        -4.1610   -1.3520    3.9120 c         1 MOL      0.518729
    162 O24        -4.2680   -2.0940    4.8350 o         1 MOL     -0.568134
    163 C55        -2.0700   -1.2620    2.3850 c3        1 MOL      0.107152
    164 C56        -1.2600   -2.0760    1.2960 c3        1 MOL      0.213158
    165 C57        -0.0710   -1.2680    0.8940 c         1 MOL      0.659822
    166 O25         0.6540   -1.7070   -0.0040 o         1 MOL     -0.721933
    167 O26         0.1760   -0.1570    1.3470 o         1 MOL     -0.721933
    168 H71        -4.2340   -0.6110    0.9350 hn        1 MOL     -0.034891
    169 H72        -3.3530   -2.8770    2.6900 h1        1 MOL      0.035855
    170 H73        -1.5420   -1.4430    3.3220 hc        1 MOL     -0.023754
    171 H74        -2.2620   -0.2200    2.1480 hc        1 MOL     -0.023754
    172 H75        -1.8980   -2.3030    0.4430 hc        1 MOL     -0.076227
    173 H76        -0.9020   -2.9990    1.7520 hc        1 MOL     -0.076227
    174 N15        -4.6510   -0.1280    3.9460 n         1 MOL     -0.113696
    175 C58        -5.0200    0.6840    5.1410 c3        1 MOL     -0.298322
    176 H77        -5.0820    1.7360    4.8600 h1        1 MOL      0.102859
    177 H78        -5.9870    0.3540    5.5220 h1        1 MOL      0.102859
    178 H79        -4.2620    0.5590    5.9140 h1        1 MOL      0.102859
    179 H80        -4.5940    0.3820    3.0730 hn        1 MOL      0.065375
    180 Ca1         2.7640    0.0920    0.3810 Ca        1 MOL      1.802444
    181 O27         2.6770   -0.3080    3.1000 oh        1 MOL     -0.869571
    182 H81         2.0030   -0.8090    3.5540 ho        1 MOL      0.407085
    183 H82         3.2790   -0.0330    3.7990 ho        1 MOL      0.407085
    184 O28         1.2610    1.3400   -1.3380 oh        1 MOL     -0.869571
    185 H83         0.5410    1.1680   -1.9320 ho        1 MOL      0.407085
    186 H84         1.8020    1.9890   -1.7860 ho        1 MOL      0.407085
    187 O29         5.6780   -0.0770    1.0950 oh        1 MOL     -0.869571
    188 H85         5.5500   -0.9390    1.4720 ho        1 MOL      0.407085
    189 H86         6.5790    0.1520    1.3240 ho        1 MOL      0.407085
@<TRIPOS>BOND
     1    1    2 1   
     2    1    4 1   
     3    1    5 1   
     4    1    6 1   
     5    2    3 2   
     6    2    7 1   
     7    7    8 1   
     8    7   15 1   
     9    8    9 1   
    10    8   11 1   
    11    8   16 1   
    12    9   10 2   
    13    9   19 1   
    14   11   12 1   
    15   11   17 1   
    16   11   18 1   
    17   12   13 1   
    18   12   14 1   
    19   19   20 1   
    20   19   27 1   
    21   20   21 1   
    22   20   23 1   
    23   20   28 1   
    24   21   22 2   
    25   21   38 1   
    26   23   24 1   
    27   23   25 1   
    28   23   29 1   
    29   24   26 1   
    30   24   30 1   
    31   24   31 1   
    32   25   32 1   
    33   25   33 1   
    34   25   34 1   
    35   26   35 1   
    36   26   36 1   
    37   26   37 1   
    38   38   39 1   
    39   38   46 1   
    40   39   40 1   
    41   39   42 1   
    42   39   47 1   
    43   40   41 2   
    44   40   50 1   
    45   42   43 1   
    46   42   48 1   
    47   42   49 1   
    48   43   44 1   
    49   43   45 1   
    50   50   51 1   
    51   50   54 1   
    52   51   52 1   
    53   51   55 1   
    54   51   56 1   
    55   52   53 2   
    56   52   57 1   
    57   57   58 1   
    58   57   65 1   
    59   58   59 1   
    60   58   61 1   
    61   58   66 1   
    62   59   60 2   
    63   59   69 1   
    64   61   62 1   
    65   61   67 1   
    66   61   68 1   
    67   62   63 1   
    68   62   64 1   
    69   69   70 1   
    70   69   73 1   
    71   70   71 1   
    72   70   74 1   
    73   70   75 1   
    74   71   72 2   
    75   71   76 1   
    76   76   77 1   
    77   76   85 1   
    78   77   78 1   
    79   77   80 1   
    80   77   86 1   
    81   78   79 2   
    82   78   93 1   
    83   80   81 1   
    84   80   87 1   
    85   80   88 1   
    86   81   82 1   
    87   81   89 1   
    88   81   90 1   
    89   82   83 1   
    90   82   84 2   
    91   83   91 1   
    92   83   92 1   
    93   93   94 1   
    94   93  100 1   
    95   94   95 1   
    96   94   97 1   
    97   94  101 1   
    98   95   96 2   
    99   95  109 1   
   100   97   98 1   
   101   97   99 1   
   102   97  102 1   
   103   98  103 1   
   104   98  104 1   
   105   98  105 1   
   106   99  106 1   
   107   99  107 1   
   108   99  108 1   
   109  109  110 1   
   110  109  117 1   
   111  110  111 1   
   112  110  113 1   
   113  110  118 1   
   114  111  112 2   
   115  111  123 1   
   116  113  114 1   
   117  113  119 1   
   118  113  120 1   
   119  114  115 1   
   120  114  116 2   
   121  115  121 1   
   122  115  122 1   
   123  123  124 1   
   124  123  135 1   
   125  124  125 1   
   126  124  127 1   
   127  124  136 1   
   128  125  126 2   
   129  125  144 1   
   130  127  128 1   
   131  127  137 1   
   132  127  138 1   
   133  128  129 ar  
   134  128  130 ar  
   135  129  131 ar  
   136  129  139 1   
   137  130  132 ar  
   138  130  140 1   
   139  131  133 ar  
   140  131  141 1   
   141  132  133 ar  
   142  132  142 1   
   143  133  134 1   
   144  134  143 1   
   145  144  145 1   
   146  144  153 1   
   147  145  146 1   
   148  145  148 1   
   149  145  154 1   
   150  146  147 2   
   151  146  159 1   
   152  148  149 1   
   153  148  155 1   
   154  148  156 1   
   155  149  150 1   
   156  149  157 1   
   157  149  158 1   
   158  150  151 1   
   159  150  152 1   
   160  159  160 1   
   161  159  168 1   
   162  160  161 1   
   163  160  163 1   
   164  160  169 1   
   165  161  162 2   
   166  161  174 1   
   167  163  164 1   
   168  163  170 1   
   169  163  171 1   
   170  164  165 1   
   171  164  172 1   
   172  164  173 1   
   173  165  166 1   
   174  165  167 1   
   175  174  175 1   
   176  174  179 1   
   177  175  176 1   
   178  175  177 1   
   179  175  178 1   
   180  181  182 1   
   181  181  183 1   
   182  184  185 1   
   183  184  186 1   
   184  187  188 1   
   185  187  189 1   
@<TRIPOS>SUBSTRUCTURE
     1 MOL         1 TEMP              0 ****  ****    0 ROOT
