@<TRIPOS>MOLECULE
MOL
  175   173     1     0     0
SMALL
resp


@<TRIPOS>ATOM
      1 C1          0.7700    4.2020    5.4750 c3        1 MOL     -0.396539
      2 C2          0.2560    4.1200    4.0310 c         1 MOL      0.807308
      3 O1          1.0020    4.4170    3.1290 o         1 MOL     -0.570081
      4 H1          0.4000    5.1160    5.9390 hc        1 MOL      0.090980
      5 H2          0.4130    3.3390    6.0370 hc        1 MOL      0.090980
      6 H3          1.8590    4.2100    5.4730 hc        1 MOL      0.090980
      7 N1         -1.0200    3.8280    3.8430 n         1 MOL     -0.793725
      8 C3         -1.7070    3.6090    2.5590 c3        1 MOL      0.094445
      9 C4         -1.7870    4.9220    1.7480 c         1 MOL      0.594997
     10 O2         -2.0130    6.0500    2.2540 o         1 MOL     -0.598852
     11 C5         -3.1710    3.0790    2.8500 c3        1 MOL     -0.156014
     12 C6         -3.8640    2.6570    1.5190 c         1 MOL      0.494871
     13 O3         -5.1160    2.8720    1.4360 o         1 MOL     -0.589670
     14 O4         -3.2130    2.1590    0.5980 o         1 MOL     -0.589670
     15 H4         -1.5820    4.0780    4.6460 hn        1 MOL      0.351828
     16 H5         -1.1240    2.8330    2.0690 h1        1 MOL      0.142223
     17 H6         -3.7770    3.8210    3.3700 hc        1 MOL      0.050475
     18 H7         -3.1690    2.2130    3.5000 hc        1 MOL      0.050475
     19 N2         -1.8010    4.7560    0.4550 n         1 MOL     -0.304098
     20 C7         -2.0660    5.5930   -0.7010 c3        1 MOL      0.176963
     21 C8         -3.1130    5.0520   -1.7020 c         1 MOL      0.447083
     22 O5         -3.3050    5.8700   -2.6190 o         1 MOL     -0.575632
     23 C9         -0.6950    5.7560   -1.3850 c3        1 MOL     -0.208746
     24 H8         -1.5090    3.8120    0.2860 hn        1 MOL      0.074222
     25 H9         -2.4220    6.5370   -0.2780 h1        1 MOL      0.032140
     26 H10         0.0800    6.1690   -0.7270 hc        1 MOL      0.058767
     27 H11        -0.3230    4.7910   -1.7350 hc        1 MOL      0.058767
     28 H12        -0.8060    6.3860   -2.2700 hc        1 MOL      0.058767
     29 N3         -3.6430    3.8330   -1.6890 n         1 MOL     -0.399383
     30 C10        -4.4420    3.4080   -2.9070 c3        1 MOL      0.126696
     31 C11        -5.7330    2.6890   -2.5510 c         1 MOL      0.339308
     32 O6         -6.5770    2.4610   -3.3940 o         1 MOL     -0.556383
     33 C12        -3.5410    2.4750   -3.7310 c3        1 MOL     -0.160793
     34 C13        -2.9320    1.3640   -2.9210 c         1 MOL      0.714282
     35 O7         -3.5420    0.7100   -2.0200 o         1 MOL     -0.710053
     36 O8         -1.7160    1.2460   -2.9040 o         1 MOL     -0.710053
     37 H13        -3.3450    3.1790   -0.9870 hn        1 MOL      0.452871
     38 H14        -4.6970    4.2290   -3.5880 h1        1 MOL      0.083071
     39 H15        -2.7270    3.0930   -4.1060 hc        1 MOL      0.043953
     40 H16        -4.0060    2.0210   -4.6110 hc        1 MOL      0.043953
     41 N4         -5.9050    2.3270   -1.2670 n         1 MOL      0.034701
     42 C14        -7.1560    1.6400   -0.7670 c3        1 MOL     -0.338512
     43 C15        -7.2690    0.1190   -1.1070 c         1 MOL      0.596530
     44 O9         -8.3330   -0.4280   -0.9110 o         1 MOL     -0.618136
     45 H17        -5.0650    2.3140   -0.7020 hn        1 MOL     -0.200301
     46 H18        -7.9330    2.1990   -1.2840 h1        1 MOL      0.147502
     47 H19        -7.2480    1.7670    0.3150 h1        1 MOL      0.147502
     48 N5         -6.1700   -0.4860   -1.5910 n         1 MOL     -0.393178
     49 C16        -6.2050   -1.8770   -2.0540 c3        1 MOL      0.050191
     50 C17        -6.1820   -2.9830   -0.9010 c         1 MOL      0.386015
     51 O10        -5.9700   -4.1710   -1.2050 o         1 MOL     -0.487491
     52 C18        -5.1550   -1.9700   -3.1380 c3        1 MOL     -0.092811
     53 C19        -3.7080   -2.1970   -2.6840 c         1 MOL      0.497456
     54 N6         -2.7920   -2.5520   -3.5460 n         1 MOL     -0.600310
     55 O11        -3.4030   -2.1570   -1.4610 o         1 MOL     -0.442210
     56 H20        -5.3530    0.1110   -1.7070 hn        1 MOL      0.343666
     57 H21        -7.1640   -2.1030   -2.5160 h1        1 MOL      0.085946
     58 H22        -5.1690   -1.1100   -3.8070 hc        1 MOL      0.028000
     59 H23        -5.4450   -2.8460   -3.7180 hc        1 MOL      0.028000
     60 H24        -2.9940   -2.5420   -4.5390 hn        1 MOL      0.318822
     61 H25        -1.8350   -2.5690   -3.2110 hn        1 MOL      0.318822
     62 N7         -6.4100   -2.5770    0.3660 n         1 MOL     -0.173973
     63 C20        -6.5540   -3.4990    1.5000 c3        1 MOL     -0.274311
     64 C21        -5.2410   -4.3130    2.0100 c         1 MOL      0.455996
     65 O12        -5.2730   -5.3150    2.7550 o         1 MOL     -0.572150
     66 H26        -6.7550   -1.6490    0.5600 hn        1 MOL      0.242098
     67 H27        -7.3530   -4.1740    1.1770 h1        1 MOL      0.119750
     68 H28        -6.8920   -2.8850    2.3390 h1        1 MOL      0.119750
     69 N8         -4.1170   -3.9800    1.4190 n         1 MOL     -0.107672
     70 C22        -2.7840   -4.6270    1.5420 c3        1 MOL     -0.164416
     71 C23        -1.7150   -3.5370    1.6180 c         1 MOL      0.413303
     72 O13        -1.9950   -2.4450    1.0490 o         1 MOL     -0.548383
     73 C24        -2.5330   -5.4570    0.3040 c3        1 MOL      0.590131
     74 C25        -3.4920   -6.6060    0.1020 c3        1 MOL     -0.605825
     75 O14        -2.6020   -4.7150   -0.8930 oh        1 MOL     -0.611344
     76 H29        -4.2730   -3.1850    0.8080 hn        1 MOL      0.130066
     77 H30        -2.7720   -5.2880    2.4140 h1        1 MOL      0.088762
     78 H31        -1.5200   -5.8630    0.3920 h1        1 MOL     -0.065044
     79 H32        -2.3940   -3.7880   -0.8500 ho        1 MOL      0.332602
     80 H33        -4.5240   -6.2450    0.0830 hc        1 MOL      0.151210
     81 H34        -3.3450   -7.0680   -0.8760 hc        1 MOL      0.151210
     82 H35        -3.3870   -7.2830    0.9460 hc        1 MOL      0.151210
     83 N9         -0.5270   -3.8160    2.2150 n         1 MOL     -0.334254
     84 C26         0.6320   -2.9740    2.2300 c3        1 MOL      0.101708
     85 C27         1.2770   -3.2210    0.9070 c         1 MOL      0.594568
     86 O15         1.5750   -4.3350    0.5330 o         1 MOL     -0.619737
     87 C28         1.6460   -3.2560    3.4490 c3        1 MOL      0.039476
     88 C29         0.9070   -3.0470    4.7650 c3        1 MOL      0.094180
     89 C30         2.9780   -2.4560    3.3660 c3        1 MOL     -0.110764
     90 C31         0.4430   -1.5860    5.0000 c3        1 MOL     -0.051500
     91 H36        -0.4100   -4.8040    2.3960 hn        1 MOL      0.230604
     92 H37         0.3550   -1.9180    2.1740 h1        1 MOL     -0.010472
     93 H38         1.9700   -4.2900    3.4160 hc        1 MOL     -0.004984
     94 H39         1.6230   -3.2650    5.5640 hc        1 MOL     -0.030240
     95 H40         0.1390   -3.8140    4.9100 hc        1 MOL     -0.030240
     96 H41         2.8310   -1.3830    3.2920 hc        1 MOL      0.022846
     97 H42         3.6510   -2.8590    4.1190 hc        1 MOL      0.022846
     98 H43         3.3760   -2.7540    2.3900 hc        1 MOL      0.022846
     99 H44         0.9980   -0.7770    4.5220 hc        1 MOL     -0.001628
    100 H45        -0.5980   -1.5650    4.6860 hc        1 MOL     -0.001628
    101 H46         0.4060   -1.4380    6.0790 hc        1 MOL     -0.001628
    102 N10         1.5390   -2.1370    0.1670 n         1 MOL     -0.150415
    103 C32         2.4580   -2.0150   -0.9830 c3        1 MOL      0.033859
    104 C33         3.9240   -1.6310   -0.6620 c         1 MOL      0.477141
    105 O16         4.1540   -0.8900    0.2320 o         1 MOL     -0.362872
    106 C34         1.8870   -1.2550   -2.2040 c3        1 MOL     -0.146441
    107 C35         0.5510   -1.7460   -2.5210 c         1 MOL      0.645820
    108 O17         0.2730   -2.1490   -3.6750 o         1 MOL     -0.650905
    109 O18        -0.3840   -1.6460   -1.6480 o         1 MOL     -0.650905
    110 H47         1.0220   -1.2840    0.3540 hn        1 MOL     -0.000902
    111 H48         2.5810   -3.0530   -1.3080 h1        1 MOL      0.035990
    112 H49         2.5390   -1.4900   -3.0480 hc        1 MOL      0.053754
    113 H50         1.8810   -0.1740   -2.0220 hc        1 MOL      0.053754
    114 N11         4.9200   -2.0790   -1.3170 n         1 MOL     -0.574504
    115 C36         6.2850   -1.6020   -1.1630 c3        1 MOL      0.358803
    116 C37         6.4190   -0.0950   -0.9980 c         1 MOL      0.287710
    117 O19         7.1140    0.3010   -0.0770 o         1 MOL     -0.552497
    118 C38         7.2160   -2.2990   -2.2090 c3        1 MOL     -0.315344
    119 C39         8.6890   -1.9440   -2.0720 ca        1 MOL      0.161332
    120 C40         9.2140   -0.7010   -2.4370 ca        1 MOL     -0.197908
    121 C41         9.5940   -2.9070   -1.6550 ca        1 MOL     -0.197908
    122 C42        10.5780   -0.4000   -2.3150 ca        1 MOL     -0.051118
    123 C43        10.9840   -2.7040   -1.5960 ca        1 MOL     -0.051118
    124 C44        11.4260   -1.4550   -1.9570 ca        1 MOL     -0.163861
    125 H51         4.7150   -2.7910   -1.9980 hn        1 MOL      0.305540
    126 H52         6.6470   -2.0850   -0.2600 h1        1 MOL      0.060908
    127 H53         6.8920   -1.8850   -3.1660 hc        1 MOL      0.096477
    128 H54         7.1230   -3.3860   -2.2490 hc        1 MOL      0.096477
    129 H55         8.5830    0.1090   -2.7530 ha        1 MOL      0.103611
    130 H56         9.1740   -3.8870   -1.5010 ha        1 MOL      0.103611
    131 H57        11.0250    0.5240   -2.6490 ha        1 MOL      0.101565
    132 H58        11.5880   -3.5710   -1.3740 ha        1 MOL      0.101565
    133 H59        12.4890   -1.2530   -1.9540 ha        1 MOL      0.097459
    134 N12         5.8820    0.8630   -1.7770 n         1 MOL      0.386739
    135 C45         6.0870    2.2620   -1.4770 c3        1 MOL     -0.041884
    136 C46         5.3380    2.7140   -0.2380 c         1 MOL      0.409581
    137 O20         5.3320    3.8800    0.0230 o         1 MOL     -0.521259
    138 C47         5.5700    3.0400   -2.7400 c3        1 MOL     -0.228497
    139 C48         5.6550    2.0030   -3.8270 c3        1 MOL      0.497276
    140 C49         5.4010    0.6750   -3.1440 c3        1 MOL     -0.387401
    141 H60         7.1580    2.4770   -1.3850 h1        1 MOL      0.061578
    142 H61         4.5150    3.2900   -2.6210 hc        1 MOL      0.065495
    143 H62         6.1950    3.9060   -2.9650 hc        1 MOL      0.065495
    144 H63         5.1410    2.2990   -4.7390 hc        1 MOL     -0.109599
    145 H64         6.6990    1.9310   -4.1360 hc        1 MOL     -0.109599
    146 H65         4.3160    0.5460   -3.1220 h1        1 MOL      0.058301
    147 H66         5.8530   -0.1880   -3.6190 h1        1 MOL      0.058301
    148 N13         4.7660    1.7490    0.5410 n         1 MOL     -0.042186
    149 C50         4.1510    1.9950    1.8360 c3        1 MOL     -0.039874
    150 C51         4.9310    1.3410    3.0170 c         1 MOL      0.425329
    151 O21         4.9570    1.8920    4.1390 o         1 MOL     -0.545551
    152 C52         2.7070    1.5590    1.8120 c3        1 MOL      0.061216
    153 C53         1.9850    1.9290    0.4720 c3        1 MOL     -0.082437
    154 C54         0.5490    1.4570    0.5260 c         1 MOL      0.518061
    155 O22        -0.2840    1.9520   -0.2450 o         1 MOL     -0.607181
    156 O23         0.2030    0.3840    1.0840 o         1 MOL     -0.607181
    157 H67         4.7700    0.8100    0.1720 hn        1 MOL     -0.291780
    158 H68         4.1350    3.0690    2.0740 h1        1 MOL      0.087928
    159 H69         2.1660    2.0310    2.6350 hc        1 MOL      0.012148
    160 H70         2.6480    0.5020    2.0550 hc        1 MOL      0.012148
    161 H71         2.4230    1.3830   -0.3620 hc        1 MOL      0.079611
    162 H72         2.1240    3.0060    0.3210 hc        1 MOL      0.079611
    163 N14         5.6810    0.2890    2.6690 n         1 MOL     -0.122006
    164 C55         6.6100   -0.3660    3.6160 c3        1 MOL     -0.115200
    165 H73         6.4290    0.0130    4.6210 h1        1 MOL      0.056667
    166 H74         6.4460   -1.4430    3.6000 h1        1 MOL      0.056667
    167 H75         7.6370   -0.1490    3.3250 h1        1 MOL      0.056667
    168 H76         5.5880   -0.1430    1.7560 hn        1 MOL      0.184456
    169 Ca1        -1.9480   -0.0420   -0.1760 Ca        1 MOL      1.662041
    170 O24        -4.5540   -0.3610    1.3310 oh        1 MOL     -0.681357
    171 H77        -4.8860    0.5250    1.1430 ho        1 MOL      0.348618
    172 H78        -4.9100   -0.5610    2.1920 ho        1 MOL      0.348618
    173 O25        -1.8640    0.2430    2.6840 oh        1 MOL     -0.681357
    174 H79        -1.9340    0.2870    3.6290 ho        1 MOL      0.348618
    175 H80        -0.9470    0.4220    2.4940 ho        1 MOL      0.348618
@<TRIPOS>BOND
     1    1    2 1   
     2    1    4 1   
     3    1    5 1   
     4    1    6 1   
     5    2    3 2   
     6    2    7 1   
     7    7    8 1   
     8    7   15 1   
     9    8    9 1   
    10    8   11 1   
    11    8   16 1   
    12    9   10 2   
    13    9   19 1   
    14   11   12 1   
    15   11   17 1   
    16   11   18 1   
    17   12   13 1   
    18   12   14 1   
    19   19   20 1   
    20   19   24 1   
    21   20   21 1   
    22   20   23 1   
    23   20   25 1   
    24   21   22 2   
    25   21   29 1   
    26   23   26 1   
    27   23   27 1   
    28   23   28 1   
    29   29   30 1   
    30   29   37 1   
    31   30   31 1   
    32   30   33 1   
    33   30   38 1   
    34   31   32 2   
    35   31   41 1   
    36   33   34 1   
    37   33   39 1   
    38   33   40 1   
    39   34   35 1   
    40   34   36 1   
    41   41   42 1   
    42   41   45 1   
    43   42   43 1   
    44   42   46 1   
    45   42   47 1   
    46   43   44 2   
    47   43   48 1   
    48   48   49 1   
    49   48   56 1   
    50   49   50 1   
    51   49   52 1   
    52   49   57 1   
    53   50   51 2   
    54   50   62 1   
    55   52   53 1   
    56   52   58 1   
    57   52   59 1   
    58   53   54 1   
    59   53   55 2   
    60   54   60 1   
    61   54   61 1   
    62   62   63 1   
    63   62   66 1   
    64   63   64 1   
    65   63   67 1   
    66   63   68 1   
    67   64   65 2   
    68   64   69 1   
    69   69   70 1   
    70   69   76 1   
    71   70   71 1   
    72   70   73 1   
    73   70   77 1   
    74   71   72 2   
    75   71   83 1   
    76   73   74 1   
    77   73   75 1   
    78   73   78 1   
    79   74   80 1   
    80   74   81 1   
    81   74   82 1   
    82   75   79 1   
    83   83   84 1   
    84   83   91 1   
    85   84   85 1   
    86   84   87 1   
    87   84   92 1   
    88   85   86 2   
    89   85  102 1   
    90   87   88 1   
    91   87   89 1   
    92   87   93 1   
    93   88   90 1   
    94   88   94 1   
    95   88   95 1   
    96   89   96 1   
    97   89   97 1   
    98   89   98 1   
    99   90   99 1   
   100   90  100 1   
   101   90  101 1   
   102  102  103 1   
   103  102  110 1   
   104  103  104 1   
   105  103  106 1   
   106  103  111 1   
   107  104  105 2   
   108  104  114 1   
   109  106  107 1   
   110  106  112 1   
   111  106  113 1   
   112  107  108 1   
   113  107  109 1   
   114  114  115 1   
   115  114  125 1   
   116  115  116 1   
   117  115  118 1   
   118  115  126 1   
   119  116  117 2   
   120  116  134 1   
   121  118  119 1   
   122  118  127 1   
   123  118  128 1   
   124  119  120 ar  
   125  119  121 ar  
   126  120  122 ar  
   127  120  129 1   
   128  121  123 ar  
   129  121  130 1   
   130  122  124 ar  
   131  122  131 1   
   132  123  124 ar  
   133  123  132 1   
   134  124  133 1   
   135  134  135 1   
   136  134  140 1   
   137  135  136 1   
   138  135  138 1   
   139  135  141 1   
   140  136  137 2   
   141  136  148 1   
   142  138  139 1   
   143  138  142 1   
   144  138  143 1   
   145  139  140 1   
   146  139  144 1   
   147  139  145 1   
   148  140  146 1   
   149  140  147 1   
   150  148  149 1   
   151  148  157 1   
   152  149  150 1   
   153  149  152 1   
   154  149  158 1   
   155  150  151 2   
   156  150  163 1   
   157  152  153 1   
   158  152  159 1   
   159  152  160 1   
   160  153  154 1   
   161  153  161 1   
   162  153  162 1   
   163  154  155 1   
   164  154  156 1   
   165  163  164 1   
   166  163  168 1   
   167  164  165 1   
   168  164  166 1   
   169  164  167 1   
   170  170  171 1   
   171  170  172 1   
   172  173  174 1   
   173  173  175 1   
@<TRIPOS>SUBSTRUCTURE
     1 MOL         1 TEMP              0 ****  ****    0 ROOT
