@<TRIPOS>MOLECULE
MOL
  179   176     1     0     0
SMALL
resp


@<TRIPOS>ATOM
      1 C1          1.6580    2.6040    6.0070 c3        1 MOL     -0.298094
      2 C2          1.3350    2.2330    4.5510 c         1 MOL      0.656286
      3 O1          2.2000    1.9790    3.7140 o         1 MOL     -0.596178
      4 H1          0.7400    2.8880    6.5210 hc        1 MOL      0.075151
      5 H2          2.1040    1.7460    6.5110 hc        1 MOL      0.075151
      6 H3          2.3570    3.4400    6.0230 hc        1 MOL      0.075151
      7 N1          0.0570    2.0800    4.3530 n         1 MOL     -0.503821
      8 C3         -0.5560    2.0320    3.0300 c3        1 MOL      0.049764
      9 C4         -0.5710    3.4600    2.4310 c         1 MOL      0.533335
     10 O2         -1.2660    4.3810    2.8750 o         1 MOL     -0.534147
     11 C5         -1.8660    1.3560    3.2290 c3        1 MOL     -0.212429
     12 C6         -2.5300    0.9740    1.9500 c         1 MOL      0.915022
     13 O3         -1.9260    1.1590    0.8580 o         1 MOL     -0.824850
     14 O4         -3.6480    0.3750    2.0030 o         1 MOL     -0.824850
     15 H4         -0.5410    1.9570    5.1610 hn        1 MOL      0.314893
     16 H5          0.0110    1.3680    2.3720 h1        1 MOL      0.059691
     17 H6         -2.4450    2.0690    3.8270 hc        1 MOL      0.059164
     18 H7         -1.6640    0.4290    3.7600 hc        1 MOL      0.059164
     19 N2          0.2070    3.7800    1.3620 n         1 MOL     -0.262708
     20 C7          0.4940    5.1570    0.8800 c3        1 MOL     -0.076892
     21 C8         -0.7660    5.6870    0.1920 c         1 MOL      0.514860
     22 O5         -0.9430    6.8930    0.0210 o         1 MOL     -0.584792
     23 C9          1.7590    5.0770    0.0010 c3        1 MOL     -0.079006
     24 C10         2.3790    6.4940    0.0800 c3        1 MOL     -0.005506
     25 C11         3.4630    6.7520   -0.9720 c3        1 MOL     -0.051050
     26 C12         2.9360    6.8970   -2.4130 c3        1 MOL      0.146565
     27 N3          3.7170    7.9030   -3.2610 n4        1 MOL     -0.527166
     28 H8          0.7290    3.0140    0.9700 hn        1 MOL      0.203688
     29 H9          0.7420    5.8280    1.7010 h1        1 MOL      0.097777
     30 H10         1.5040    4.8070   -1.0240 hc        1 MOL      0.068343
     31 H11         2.4020    4.2680    0.3700 hc        1 MOL      0.068343
     32 H12         2.8680    6.6020    1.0570 hc        1 MOL      0.038816
     33 H13         1.6730    7.3120   -0.0080 hc        1 MOL      0.038816
     34 H14         4.2170    5.9610   -0.9250 hc        1 MOL      0.035144
     35 H15         3.9550    7.6600   -0.6300 hc        1 MOL      0.035144
     36 H16         1.8760    7.1370   -2.2860 hx        1 MOL      0.041499
     37 H17         2.8720    5.8990   -2.8430 hx        1 MOL      0.041499
     38 H18         3.1130    7.8670   -4.0760 hn        1 MOL      0.373939
     39 H19         3.6560    8.8650   -2.9670 hn        1 MOL      0.373939
     40 H20         4.6890    7.6250   -3.3180 hn        1 MOL      0.373939
     41 N4         -1.5660    4.8190   -0.4020 n         1 MOL     -0.232434
     42 C13        -2.8060    5.2980   -1.1360 c3        1 MOL      0.035803
     43 C14        -4.0610    4.6840   -0.4770 c         1 MOL      0.341854
     44 O6         -5.2260    5.0310   -0.7940 o         1 MOL     -0.547611
     45 C15        -2.8540    4.8360   -2.6330 c3        1 MOL     -0.175747
     46 C16        -2.4840    3.3610   -2.7530 c         1 MOL      0.686338
     47 O7         -2.2630    2.8370   -3.9220 o         1 MOL     -0.709112
     48 O8         -2.4020    2.5650   -1.7030 o         1 MOL     -0.709112
     49 H21        -1.4210    3.8260   -0.2970 hn        1 MOL      0.198426
     50 H22        -2.9510    6.3780   -1.1380 h1        1 MOL      0.116969
     51 H23        -2.1050    5.4780   -3.1010 hc        1 MOL      0.064504
     52 H24        -3.7920    5.0790   -3.1260 hc        1 MOL      0.064504
     53 N5         -3.8920    3.9410    0.6160 n         1 MOL      0.028255
     54 C17        -4.9290    3.4610    1.5580 c3        1 MOL     -0.161372
     55 C18        -5.8090    2.4210    0.8390 c         1 MOL      0.499332
     56 O9         -7.0180    2.3020    1.2210 o         1 MOL     -0.575474
     57 H25        -2.9330    3.8050    0.8720 hn        1 MOL     -0.004812
     58 H26        -5.4780    4.3370    1.9150 h1        1 MOL      0.100551
     59 H27        -4.4750    2.9170    2.3870 h1        1 MOL      0.100551
     60 N6         -5.3930    1.8130   -0.2610 n         1 MOL     -0.121968
     61 C19        -6.2740    1.0280   -1.0320 c3        1 MOL      0.008852
     62 C20        -6.7070   -0.2850   -0.3210 c         1 MOL      0.289277
     63 O10        -7.6290   -0.9790   -0.7820 o         1 MOL     -0.533427
     64 C21        -5.6420    0.8410   -2.3520 c3        1 MOL     -0.271932
     65 C22        -4.7920   -0.3920   -2.6050 c         1 MOL      0.791644
     66 N7         -5.0830   -1.1450   -3.6480 n         1 MOL     -0.821550
     67 O11        -3.8740   -0.6780   -1.8560 o         1 MOL     -0.726700
     68 H28        -4.4810    1.9390   -0.6770 hn        1 MOL      0.114431
     69 H29        -7.1640    1.6500   -1.1690 h1        1 MOL      0.116687
     70 H30        -5.0630    1.6710   -2.7530 hc        1 MOL      0.105331
     71 H31        -6.5220    0.8370   -2.9860 hc        1 MOL      0.105331
     72 H32        -5.9580   -1.0350   -4.1510 hn        1 MOL      0.383517
     73 H33        -4.6430   -2.0480   -3.6550 hn        1 MOL      0.383517
     74 N8         -6.0490   -0.6820    0.7330 n         1 MOL     -0.049405
     75 C23        -6.1720   -1.8300    1.6040 c3        1 MOL     -0.141837
     76 C24        -5.0520   -2.8380    1.5970 c         1 MOL      0.518240
     77 O12        -5.2530   -3.8570    2.2610 o         1 MOL     -0.567504
     78 H34        -5.3110   -0.0310    0.9240 hn        1 MOL      0.226826
     79 H35        -7.0510   -2.4140    1.3690 h1        1 MOL      0.107206
     80 H36        -6.4360   -1.4730    2.6050 h1        1 MOL      0.107206
     81 N9         -3.9860   -2.6620    0.8250 n         1 MOL     -0.243303
     82 C25        -2.9210   -3.6410    0.7460 c3        1 MOL      0.392851
     83 C26        -1.5870   -2.9730    0.8630 c         1 MOL      0.408164
     84 O13        -1.4770   -1.8250    0.3700 o         1 MOL     -0.523531
     85 C27        -3.0120   -4.6170   -0.4350 c3        1 MOL      0.005747
     86 C28        -4.3700   -5.2270   -0.6290 ca        1 MOL     -0.088430
     87 C29        -5.4020   -4.4630   -1.2080 ca        1 MOL     -0.087013
     88 C30        -4.6450   -6.4970   -0.2610 ca        1 MOL     -0.087013
     89 C31        -6.7380   -4.8610   -1.2640 ca        1 MOL     -0.353471
     90 C32        -6.0130   -7.0230   -0.3230 ca        1 MOL     -0.353471
     91 C33        -7.0620   -6.1430   -0.7450 ca        1 MOL      0.435023
     92 O14        -8.3740   -6.5090   -0.6380 oh        1 MOL     -0.465021
     93 H37        -3.8940   -1.7620    0.3770 hn        1 MOL      0.131292
     94 H38        -3.0300   -4.2320    1.6540 h1        1 MOL     -0.043341
     95 H39        -2.3530   -5.4740   -0.2630 hc        1 MOL      0.002689
     96 H40        -2.7250   -4.0680   -1.3280 hc        1 MOL      0.002689
     97 H41        -5.2040   -3.4440   -1.5050 ha        1 MOL      0.116291
     98 H42        -3.8300   -7.1480   -0.0060 ha        1 MOL      0.116291
     99 H43        -7.4950   -4.1500   -1.5370 ha        1 MOL      0.168647
    100 H44        -6.1430   -8.0520    0.0020 ha        1 MOL      0.168647
    101 H45        -8.4110   -7.4460   -0.4180 ho        1 MOL      0.337371
    102 N10        -0.5350   -3.6610    1.2840 n         1 MOL     -0.628105
    103 C34         0.8490   -3.1380    1.2480 c3        1 MOL      0.399494
    104 C35         1.7450   -3.7880    0.1450 c         1 MOL      0.395473
    105 O15         1.7880   -5.0350    0.1610 o         1 MOL     -0.557393
    106 C36         1.5880   -3.4140    2.5610 c3        1 MOL      0.066201
    107 C37         1.0530   -2.4690    3.6790 c3        1 MOL      0.041122
    108 C38         3.1230   -3.4120    2.6210 c3        1 MOL     -0.113828
    109 C39         1.4610   -1.0100    3.7990 c3        1 MOL     -0.027199
    110 H46        -0.7380   -4.5430    1.7430 hn        1 MOL      0.331681
    111 H47         0.9620   -2.0630    1.1370 h1        1 MOL     -0.057864
    112 H48         1.2150   -4.3540    2.9530 hc        1 MOL     -0.014070
    113 H49         1.2320   -2.9810    4.6240 hc        1 MOL     -0.020183
    114 H50        -0.0340   -2.4240    3.6470 hc        1 MOL     -0.020183
    115 H51         3.4550   -3.2630    3.6500 hc        1 MOL      0.017971
    116 H52         3.5010   -4.3880    2.3040 hc        1 MOL      0.017971
    117 H53         3.5300   -2.5740    2.0680 hc        1 MOL      0.017971
    118 H54         1.6240   -0.6280    2.7890 hc        1 MOL      0.018982
    119 H55         0.6460   -0.4870    4.2860 hc        1 MOL      0.018982
    120 H56         2.4060   -0.9800    4.3420 hc        1 MOL      0.018982
    121 N11         2.4050   -2.9970   -0.7030 n         1 MOL     -0.242671
    122 C40         3.4390   -3.5560   -1.5860 c3        1 MOL      0.060046
    123 C41         4.8150   -3.5380   -0.9530 c         1 MOL      0.372407
    124 O16         5.0500   -2.7850    0.0160 o         1 MOL     -0.275591
    125 C42         3.4700   -2.7950   -2.9350 c3        1 MOL     -0.176624
    126 O17         4.0270   -1.4740   -2.7730 oh        1 MOL     -0.395957
    127 H57         2.3140   -1.9900   -0.5580 hn        1 MOL      0.176151
    128 H58         3.2380   -4.5930   -1.8210 h1        1 MOL      0.083198
    129 H59         2.5520   -2.6920   -3.5120 h1        1 MOL      0.103101
    130 H60         4.1090   -3.4020   -3.5800 h1        1 MOL      0.103101
    131 H61         3.5470   -0.7820   -3.2250 ho        1 MOL      0.372924
    132 N12         5.8300   -4.3920   -1.2590 n         1 MOL     -0.467300
    133 C43         7.2020   -4.1660   -0.6960 c3        1 MOL      0.119351
    134 C44         7.8620   -2.8020   -1.0170 c         1 MOL      0.475351
    135 O18         8.6940   -2.3480   -0.2170 o         1 MOL     -0.513011
    136 C45         8.0210   -5.4130   -1.1340 c3        1 MOL     -0.373385
    137 H62         5.6640   -5.0470   -2.0190 hn        1 MOL      0.306959
    138 H63         7.0810   -4.2430    0.3880 h1        1 MOL      0.111113
    139 H64         8.8640   -5.4450   -0.4430 hc        1 MOL      0.113379
    140 H65         7.3120   -6.2350   -1.0160 hc        1 MOL      0.113379
    141 H66         8.2190   -5.3720   -2.2040 hc        1 MOL      0.113379
    142 N13         7.4490   -2.1160   -2.0240 n         1 MOL     -0.398945
    143 C46         7.8170   -0.7220   -2.2700 c3        1 MOL      0.216797
    144 C47         7.3500    0.1440   -1.1330 c         1 MOL      0.334486
    145 O19         8.0900    0.9050   -0.5380 o         1 MOL     -0.502416
    146 C48         7.2240   -0.3030   -3.6370 c3        1 MOL     -0.252529
    147 H67         6.7760   -2.5140   -2.6640 hn        1 MOL      0.268390
    148 H68         8.8960   -0.6530   -2.3600 h1        1 MOL      0.062002
    149 H69         7.5800   -1.0400   -4.3600 hc        1 MOL      0.056837
    150 H70         6.1550   -0.4400   -3.5670 hc        1 MOL      0.056837
    151 H71         7.4510    0.7420   -3.8420 hc        1 MOL      0.056837
    152 N14         6.0810    0.0330   -0.7070 n         1 MOL     -0.067749
    153 C49         5.5480    0.6690    0.5670 c3        1 MOL     -0.183632
    154 C50         6.2390    0.1920    1.8880 c         1 MOL      0.499825
    155 O20         6.5010    1.0340    2.7700 o         1 MOL     -0.552050
    156 C51         3.9690    0.5040    0.5600 c3        1 MOL      0.144288
    157 C52         3.1370    1.2650   -0.5290 c3        1 MOL      0.061083
    158 C53         1.6160    1.0160   -0.6000 c         1 MOL      0.625382
    159 O21         1.1780   -0.1470   -0.5120 o         1 MOL     -0.708839
    160 O22         0.8170    1.9400   -0.8160 o         1 MOL     -0.708839
    161 H72         5.5220   -0.6780   -1.1540 hn        1 MOL      0.001320
    162 H73         5.7290    1.7330    0.4370 h1        1 MOL      0.102949
    163 H74         3.6370    0.8270    1.5460 hc        1 MOL     -0.000376
    164 H75         3.5870   -0.5200    0.4990 hc        1 MOL     -0.000376
    165 H76         3.6220    1.1270   -1.4930 hc        1 MOL     -0.057350
    166 H77         3.3380    2.3280   -0.4010 hc        1 MOL     -0.057350
    167 N15         6.4400   -1.0750    1.9140 n         1 MOL     -0.000291
    168 C54         7.1030   -1.6160    3.1670 c3        1 MOL     -0.435289
    169 H78         6.5760   -1.2450    4.0460 h1        1 MOL      0.154957
    170 H79         7.0690   -2.7050    3.1560 h1        1 MOL      0.154957
    171 H80         8.1410   -1.2850    3.2010 h1        1 MOL      0.154957
    172 H81         6.1010   -1.6630    1.1660 hn        1 MOL      0.047638
    173 Ca1        -1.1860    0.1810   -1.3150 Ca        1 MOL      1.830298
    174 O23        -0.5600   -2.0580   -2.5600 oh        1 MOL     -0.896157
    175 H82        -0.6670   -3.0100   -2.5850 ho        1 MOL      0.418336
    176 H83        -0.0190   -1.8620   -3.3230 ho        1 MOL      0.418336
    177 O24        -0.2530    1.0960   -3.6320 oh        1 MOL     -0.896157
    178 H84        -0.7860    1.8280   -3.9370 ho        1 MOL      0.418336
    179 H85         0.4870    1.0570   -4.2500 ho        1 MOL      0.418336
@<TRIPOS>BOND
     1    1    2 1   
     2    1    4 1   
     3    1    5 1   
     4    1    6 1   
     5    2    3 2   
     6    2    7 1   
     7    7    8 1   
     8    7   15 1   
     9    8    9 1   
    10    8   11 1   
    11    8   16 1   
    12    9   10 2   
    13    9   19 1   
    14   11   12 1   
    15   11   17 1   
    16   11   18 1   
    17   12   13 1   
    18   12   14 1   
    19   19   20 1   
    20   19   28 1   
    21   20   21 1   
    22   20   23 1   
    23   20   29 1   
    24   21   22 2   
    25   21   41 1   
    26   23   24 1   
    27   23   30 1   
    28   23   31 1   
    29   24   25 1   
    30   24   32 1   
    31   24   33 1   
    32   25   26 1   
    33   25   34 1   
    34   25   35 1   
    35   26   27 1   
    36   26   36 1   
    37   26   37 1   
    38   27   38 1   
    39   27   39 1   
    40   27   40 1   
    41   41   42 1   
    42   41   49 1   
    43   42   43 1   
    44   42   45 1   
    45   42   50 1   
    46   43   44 2   
    47   43   53 1   
    48   45   46 1   
    49   45   51 1   
    50   45   52 1   
    51   46   47 1   
    52   46   48 1   
    53   53   54 1   
    54   53   57 1   
    55   54   55 1   
    56   54   58 1   
    57   54   59 1   
    58   55   56 2   
    59   55   60 1   
    60   60   61 1   
    61   60   68 1   
    62   61   62 1   
    63   61   64 1   
    64   61   69 1   
    65   62   63 2   
    66   62   74 1   
    67   64   65 1   
    68   64   70 1   
    69   64   71 1   
    70   65   66 1   
    71   65   67 2   
    72   66   72 1   
    73   66   73 1   
    74   74   75 1   
    75   74   78 1   
    76   75   76 1   
    77   75   79 1   
    78   75   80 1   
    79   76   77 2   
    80   76   81 1   
    81   81   82 1   
    82   81   93 1   
    83   82   83 1   
    84   82   85 1   
    85   82   94 1   
    86   83   84 2   
    87   83  102 1   
    88   85   86 1   
    89   85   95 1   
    90   85   96 1   
    91   86   87 ar  
    92   86   88 ar  
    93   87   89 ar  
    94   87   97 1   
    95   88   90 ar  
    96   88   98 1   
    97   89   91 ar  
    98   89   99 1   
    99   90   91 ar  
   100   90  100 1   
   101   91   92 1   
   102   92  101 1   
   103  102  103 1   
   104  102  110 1   
   105  103  104 1   
   106  103  106 1   
   107  103  111 1   
   108  104  105 2   
   109  104  121 1   
   110  106  107 1   
   111  106  108 1   
   112  106  112 1   
   113  107  109 1   
   114  107  113 1   
   115  107  114 1   
   116  108  115 1   
   117  108  116 1   
   118  108  117 1   
   119  109  118 1   
   120  109  119 1   
   121  109  120 1   
   122  121  122 1   
   123  121  127 1   
   124  122  123 1   
   125  122  125 1   
   126  122  128 1   
   127  123  124 2   
   128  123  132 1   
   129  125  126 1   
   130  125  129 1   
   131  125  130 1   
   132  126  131 1   
   133  132  133 1   
   134  132  137 1   
   135  133  134 1   
   136  133  136 1   
   137  133  138 1   
   138  134  135 2   
   139  134  142 1   
   140  136  139 1   
   141  136  140 1   
   142  136  141 1   
   143  142  143 1   
   144  142  147 1   
   145  143  144 1   
   146  143  146 1   
   147  143  148 1   
   148  144  145 2   
   149  144  152 1   
   150  146  149 1   
   151  146  150 1   
   152  146  151 1   
   153  152  153 1   
   154  152  161 1   
   155  153  154 1   
   156  153  156 1   
   157  153  162 1   
   158  154  155 2   
   159  154  167 1   
   160  156  157 1   
   161  156  163 1   
   162  156  164 1   
   163  157  158 1   
   164  157  165 1   
   165  157  166 1   
   166  158  159 1   
   167  158  160 1   
   168  167  168 1   
   169  167  172 1   
   170  168  169 1   
   171  168  170 1   
   172  168  171 1   
   173  174  175 1   
   174  174  176 1   
   175  177  178 1   
   176  177  179 1   
@<TRIPOS>SUBSTRUCTURE
     1 MOL         1 TEMP              0 ****  ****    0 ROOT
