@<TRIPOS>MOLECULE
MOL
  189   185     1     0     0
SMALL
resp


@<TRIPOS>ATOM
      1 C1          0.1730    3.4590    6.0600 c3        1 MOL     -0.523712
      2 C2         -0.5980    2.8460    4.9110 c         1 MOL      0.790490
      3 O1         -0.5880    1.6460    4.7010 o         1 MOL     -0.631198
      4 H1          1.0890    2.8930    6.2250 hc        1 MOL      0.135468
      5 H2          0.4230    4.4930    5.8200 hc        1 MOL      0.135468
      6 H3         -0.4370    3.4330    6.9630 hc        1 MOL      0.135468
      7 N1         -1.3250    3.6130    4.1310 n         1 MOL     -0.582381
      8 C3         -2.1100    3.2390    3.0380 c3        1 MOL      0.163816
      9 C4         -2.3840    4.4580    2.1170 c         1 MOL      0.470353
     10 O2         -2.9310    5.5200    2.5530 o         1 MOL     -0.582643
     11 C5         -3.4840    2.6270    3.4730 c3        1 MOL     -0.181904
     12 C6         -4.2900    1.9840    2.3770 c         1 MOL      0.819437
     13 O3         -5.4250    1.6740    2.7010 o         1 MOL     -0.712855
     14 O4         -3.8810    1.8830    1.2050 o         1 MOL     -0.712855
     15 H4         -1.3200    4.6070    4.3220 hn        1 MOL      0.277861
     16 H5         -1.5870    2.6090    2.3160 h1        1 MOL      0.101391
     17 H6         -4.1370    3.3110    4.0040 hc        1 MOL      0.033470
     18 H7         -3.3170    1.7980    4.1730 hc        1 MOL      0.033470
     19 N2         -2.1980    4.3430    0.7620 n         1 MOL     -0.306008
     20 C7         -2.4170    5.3210   -0.3470 c3        1 MOL     -0.062598
     21 C8         -3.6520    5.0310   -1.1850 c         1 MOL      0.682239
     22 O5         -4.1290    5.9970   -1.7190 o         1 MOL     -0.627540
     23 C9         -1.1050    5.3450   -1.1160 c3        1 MOL      0.285493
     24 C10         0.1100    5.7140   -0.2940 c3        1 MOL      0.036095
     25 C11        -1.1770    6.3140   -2.2480 c3        1 MOL     -0.336021
     26 C12         1.4690    5.4860   -1.0020 c3        1 MOL     -0.142398
     27 H8         -1.9490    3.4260    0.4180 hn        1 MOL      0.035414
     28 H9         -2.5670    6.3190    0.0690 h1        1 MOL      0.071570
     29 H10        -0.9720    4.3450   -1.5180 hc        1 MOL     -0.000180
     30 H11         0.1760    5.1330    0.6280 hc        1 MOL     -0.049143
     31 H12         0.0520    6.7590   -0.0010 hc        1 MOL     -0.049143
     32 H13        -0.3030    6.2950   -2.9030 hc        1 MOL      0.069795
     33 H14        -1.9310    6.0550   -3.0030 hc        1 MOL      0.069795
     34 H15        -1.4240    7.3040   -1.8760 hc        1 MOL      0.069795
     35 H16         1.4990    4.5930   -1.6160 hc        1 MOL      0.052527
     36 H17         1.7100    6.3680   -1.5980 hc        1 MOL      0.052527
     37 H18         2.2510    5.4330   -0.2400 hc        1 MOL      0.052527
     38 N3         -4.1530    3.8470   -1.2520 n         1 MOL     -0.510201
     39 C13        -5.1570    3.4650   -2.2000 c3        1 MOL      0.136201
     40 C14        -6.3430    2.6830   -1.6720 c         1 MOL      0.270450
     41 O6         -7.3010    2.4790   -2.4580 o         1 MOL     -0.529753
     42 C15        -4.5170    2.5080   -3.2500 c3        1 MOL     -0.364755
     43 C16        -3.4700    1.4230   -2.5830 c         1 MOL      0.689814
     44 O7         -3.8100    0.8850   -1.5150 o         1 MOL     -0.671989
     45 O8         -2.3430    1.2810   -3.1350 o         1 MOL     -0.671989
     46 H19        -3.7140    3.1480   -0.6590 hn        1 MOL      0.413018
     47 H20        -5.5100    4.3190   -2.7840 h1        1 MOL      0.101441
     48 H21        -3.9280    3.1570   -3.8870 hc        1 MOL      0.100110
     49 H22        -5.2590    1.9940   -3.8610 hc        1 MOL      0.100110
     50 N4         -6.3620    2.1410   -0.4620 n         1 MOL     -0.130940
     51 C17        -7.4610    1.2480    0.0150 c3        1 MOL     -0.050002
     52 C18        -7.5260   -0.0360   -0.7980 c         1 MOL      0.442399
     53 O9         -8.5850   -0.4790   -1.0790 o         1 MOL     -0.588079
     54 H23        -5.5150    2.1610    0.0890 hn        1 MOL      0.102529
     55 H24        -8.4160    1.7840   -0.0230 h1        1 MOL      0.056991
     56 H25        -7.2120    0.9410    1.0260 h1        1 MOL      0.056991
     57 N5         -6.4070   -0.5610   -1.2800 n         1 MOL     -0.104642
     58 C19        -6.4520   -1.8010   -2.0260 c3        1 MOL     -0.038516
     59 C20        -6.5670   -3.0430   -1.1030 c         1 MOL      0.462410
     60 O10        -6.8580   -4.1070   -1.5730 o         1 MOL     -0.530247
     61 C21        -5.2590   -1.7750   -3.0210 c3        1 MOL     -0.310101
     62 C22        -3.8800   -2.0790   -2.3420 c         1 MOL      0.782421
     63 O11        -3.6920   -1.9280   -1.1200 o         1 MOL     -0.709850
     64 O12        -2.8860   -2.3380   -3.0820 o         1 MOL     -0.709850
     65 H26        -5.4950   -0.2060   -1.0520 hn        1 MOL      0.266613
     66 H27        -7.2890   -1.8020   -2.7270 h1        1 MOL      0.107475
     67 H28        -5.2690   -0.8580   -3.5880 hc        1 MOL      0.092932
     68 H29        -5.4810   -2.6530   -3.6290 hc        1 MOL      0.092932
     69 N6         -6.4520   -2.8770    0.2410 n         1 MOL     -0.268515
     70 C23        -6.5990   -3.9640    1.2280 c3        1 MOL     -0.262524
     71 C24        -5.3500   -4.7470    1.5840 c         1 MOL      0.488605
     72 O13        -5.4740   -5.8140    2.2860 o         1 MOL     -0.586178
     73 H30        -6.0610   -2.0060    0.5720 hn        1 MOL      0.216128
     74 H31        -7.3470   -4.6210    0.7830 h1        1 MOL      0.130209
     75 H32        -6.9990   -3.5700    2.1550 h1        1 MOL      0.130209
     76 N7         -4.2560   -4.2640    1.0150 n         1 MOL     -0.074712
     77 C25        -3.0040   -4.9210    1.2080 c3        1 MOL      0.056263
     78 C26        -1.9530   -3.8410    1.4600 c         1 MOL      0.250695
     79 O14        -2.1070   -2.6610    1.1710 o         1 MOL     -0.298678
     80 C27        -2.6110   -5.8880    0.0380 c3        1 MOL     -0.112514
     81 C28        -2.8980   -5.0760   -1.2710 c3        1 MOL     -0.214159
     82 C29        -2.2890   -5.7050   -2.5420 c         1 MOL      0.655769
     83 N8         -2.4090   -5.0620   -3.6650 n         1 MOL     -0.769446
     84 O15        -1.7020   -6.7700   -2.4960 o         1 MOL     -0.619678
     85 H33        -4.2950   -3.3430    0.6050 hn        1 MOL      0.019663
     86 H34        -2.9870   -5.5410    2.1130 h1        1 MOL      0.013206
     87 H35        -3.3410   -6.6880    0.0930 hc        1 MOL      0.076255
     88 H36        -1.6580   -6.3880    0.1920 hc        1 MOL      0.076255
     89 H37        -2.4700   -4.0770   -1.1870 hc        1 MOL      0.093870
     90 H38        -3.9290   -4.7400   -1.3970 hc        1 MOL      0.093870
     91 H39        -2.6060   -4.0760   -3.5430 hn        1 MOL      0.344742
     92 H40        -1.9450   -5.4170   -4.4820 hn        1 MOL      0.344742
     93 N9         -0.7040   -4.2640    1.8720 n         1 MOL     -0.268938
     94 C30         0.4510   -3.3660    1.9230 c3        1 MOL     -0.196464
     95 C31         1.3820   -3.5090    0.7110 c         1 MOL      0.605212
     96 O16         1.9810   -4.5410    0.4600 o         1 MOL     -0.596739
     97 C32         1.1860   -3.5790    3.3210 c3        1 MOL      0.234947
     98 C33         2.6460   -2.9910    3.4250 c3        1 MOL     -0.248072
     99 C34         0.4110   -3.0280    4.4780 c3        1 MOL     -0.248072
    100 H41        -0.6620   -5.2520    2.0750 hn        1 MOL      0.257963
    101 H42        -0.0260   -2.3860    2.0170 h1        1 MOL      0.137533
    102 H43         1.2860   -4.6560    3.4550 hc        1 MOL     -0.027529
    103 H44         3.3640   -3.6860    2.9820 hc        1 MOL      0.053715
    104 H45         2.6290   -2.0050    2.9440 hc        1 MOL      0.053715
    105 H46         2.8730   -2.9390    4.4940 hc        1 MOL      0.053715
    106 H47         0.9320   -3.3710    5.3690 hc        1 MOL      0.053715
    107 H48         0.5030   -1.9500    4.3800 hc        1 MOL      0.053715
    108 H49        -0.6140   -3.3780    4.4890 hc        1 MOL      0.053715
    109 N10         1.5360   -2.4770   -0.0950 n         1 MOL     -0.310782
    110 C35         2.6770   -2.4740   -1.0690 c3        1 MOL      0.223392
    111 C36         3.9990   -1.9770   -0.4150 c         1 MOL      0.098323
    112 O17         3.9370   -1.2500    0.6120 o         1 MOL     -0.145758
    113 C37         2.2640   -1.4740   -2.1660 c3        1 MOL     -0.396639
    114 C38         3.2760   -1.4040   -3.2630 c         1 MOL      0.753261
    115 N11         3.3380   -2.3490   -4.1640 n         1 MOL     -0.787194
    116 O18         4.1780   -0.5300   -3.2520 o         1 MOL     -0.592565
    117 H50         1.1060   -1.6070    0.1870 hn        1 MOL      0.109347
    118 H51         2.8390   -3.4580   -1.4980 h1        1 MOL      0.052432
    119 H52         2.0940   -0.5070   -1.6950 hc        1 MOL      0.157027
    120 H53         1.3500   -1.8060   -2.6540 hc        1 MOL      0.157027
    121 H54         2.5420   -2.9410   -4.3460 hn        1 MOL      0.360675
    122 H55         4.0700   -2.3790   -4.8590 hn        1 MOL      0.360675
    123 N12         5.1830   -2.3700   -0.9340 n         1 MOL     -0.348451
    124 C39         6.5240   -1.9390   -0.5560 c3        1 MOL      0.195149
    125 C40         6.5370   -0.3840   -0.3520 c         1 MOL      0.660437
    126 O19         7.1180    0.0500    0.6260 o         1 MOL     -0.589556
    127 C41         7.5020   -2.2750   -1.6400 c3        1 MOL     -0.194514
    128 C42         8.8990   -1.9620   -1.1460 ca        1 MOL      0.022640
    129 C43         9.6540   -3.0090   -0.5730 ca        1 MOL     -0.161592
    130 C44         9.5430   -0.7140   -1.3390 ca        1 MOL     -0.161592
    131 C45        10.9550   -2.7990   -0.1060 ca        1 MOL     -0.220811
    132 C46        10.8370   -0.5070   -0.8690 ca        1 MOL     -0.220811
    133 C47        11.5630   -1.5760   -0.2760 ca        1 MOL      0.314383
    134 O20        12.8280   -1.5320    0.2300 oh        1 MOL     -0.554780
    135 H56         5.0860   -2.9170   -1.7820 hn        1 MOL      0.235643
    136 H57         6.8890   -2.4650    0.3260 h1        1 MOL      0.038663
    137 H58         7.3700   -1.6850   -2.5430 hc        1 MOL      0.066342
    138 H59         7.4250   -3.3420   -1.8310 hc        1 MOL      0.066342
    139 H60         9.1890   -3.9820   -0.5190 ha        1 MOL      0.130066
    140 H61         8.9850    0.1160   -1.7380 ha        1 MOL      0.130066
    141 H62        11.4950   -3.6070    0.3540 ha        1 MOL      0.133478
    142 H63        11.1700    0.5060   -1.0220 ha        1 MOL      0.133478
    143 H64        13.2270   -0.6640    0.2440 ho        1 MOL      0.399997
    144 N13         5.9070    0.4030   -1.2190 n         1 MOL     -0.361151
    145 C48         5.8660    1.8980   -1.0690 c3        1 MOL      0.027081
    146 C49         5.1270    2.4730    0.2270 c         1 MOL      0.185934
    147 O21         5.4780    3.4550    0.8340 o         1 MOL     -0.481176
    148 C50         5.1910    2.5180   -2.3590 c3        1 MOL      0.015878
    149 C51         4.8090    3.9840   -2.2960 c3        1 MOL     -0.150225
    150 C52         4.4920    4.5620   -3.7040 c         1 MOL      0.656773
    151 O22         3.4760    5.3120   -3.8510 o         1 MOL     -0.719023
    152 O23         5.3150    4.3260   -4.6870 o         1 MOL     -0.719023
    153 H65         5.4840    0.0000   -2.0410 hn        1 MOL      0.190376
    154 H66         6.8720    2.3030   -0.9800 h1        1 MOL      0.091909
    155 H67         4.2180    2.0320   -2.4840 hc        1 MOL      0.018091
    156 H68         5.8970    2.4800   -3.1810 hc        1 MOL      0.018091
    157 H69         5.5750    4.5980   -1.8270 hc        1 MOL      0.016879
    158 H70         3.9000    4.0950   -1.6820 hc        1 MOL      0.016879
    159 N14         4.2460    1.6310    0.7730 n         1 MOL      0.043487
    160 C53         3.5610    1.8340    2.1290 c3        1 MOL     -0.036759
    161 C54         4.3500    1.2010    3.2020 c         1 MOL      0.473735
    162 O24         4.4290    1.7710    4.3110 o         1 MOL     -0.584444
    163 C55         2.1050    1.4690    2.1340 c3        1 MOL     -0.079099
    164 C56         1.2750    2.1310    1.0230 c3        1 MOL     -0.215433
    165 C57         0.1250    1.2260    0.7250 c         1 MOL      0.655297
    166 O25        -0.9800    1.6830    0.3590 o         1 MOL     -0.617596
    167 O26         0.1080   -0.0320    0.8880 o         1 MOL     -0.617596
    168 H71         3.8760    0.8370    0.2950 hn        1 MOL      0.094727
    169 H72         3.5650    2.9040    2.3730 h1        1 MOL      0.061305
    170 H73         1.5720    1.5550    3.0830 hc        1 MOL      0.054707
    171 H74         2.1160    0.3930    1.9760 hc        1 MOL      0.054707
    172 H75         1.8830    2.2890    0.1250 hc        1 MOL      0.102911
    173 H76         0.8550    3.0710    1.3770 hc        1 MOL      0.102911
    174 N15         4.9510    0.0370    2.9220 n         1 MOL     -0.116218
    175 C58         5.6750   -0.7200    3.9330 c3        1 MOL     -0.003973
    176 H77         6.4510   -1.3170    3.4530 h1        1 MOL      0.022539
    177 H78         6.1340   -0.0320    4.6430 h1        1 MOL      0.022539
    178 H79         4.9840   -1.3790    4.4590 h1        1 MOL      0.022539
    179 H80         4.7670   -0.4420    2.0550 hn        1 MOL      0.001726
    180 Ca1        -2.4420   -0.2470    0.2510 Ca        1 MOL      1.571661
    181 O27        -2.2420   -0.2220    3.0630 oh        1 MOL     -0.892399
    182 H81        -1.6250    0.3910    3.4570 ho        1 MOL      0.426403
    183 H82        -2.5290   -0.7800    3.7880 ho        1 MOL      0.426403
    184 O28        -1.0340   -0.8200   -1.9130 oh        1 MOL     -0.892399
    185 H83        -1.6120   -1.4810   -2.2910 ho        1 MOL      0.426403
    186 H84        -1.0510   -0.0970   -2.5360 ho        1 MOL      0.426403
    187 O29        -4.9580   -0.8510    1.5300 oh        1 MOL     -0.892399
    188 H85        -5.2270   -1.4310    2.2470 ho        1 MOL      0.426403
    189 H86        -5.0470    0.0350    1.8840 ho        1 MOL      0.426403
@<TRIPOS>BOND
     1    1    2 1   
     2    1    4 1   
     3    1    5 1   
     4    1    6 1   
     5    2    3 2   
     6    2    7 1   
     7    7    8 1   
     8    7   15 1   
     9    8    9 1   
    10    8   11 1   
    11    8   16 1   
    12    9   10 2   
    13    9   19 1   
    14   11   12 1   
    15   11   17 1   
    16   11   18 1   
    17   12   13 1   
    18   12   14 1   
    19   19   20 1   
    20   19   27 1   
    21   20   21 1   
    22   20   23 1   
    23   20   28 1   
    24   21   22 2   
    25   21   38 1   
    26   23   24 1   
    27   23   25 1   
    28   23   29 1   
    29   24   26 1   
    30   24   30 1   
    31   24   31 1   
    32   25   32 1   
    33   25   33 1   
    34   25   34 1   
    35   26   35 1   
    36   26   36 1   
    37   26   37 1   
    38   38   39 1   
    39   38   46 1   
    40   39   40 1   
    41   39   42 1   
    42   39   47 1   
    43   40   41 2   
    44   40   50 1   
    45   42   43 1   
    46   42   48 1   
    47   42   49 1   
    48   43   44 1   
    49   43   45 1   
    50   50   51 1   
    51   50   54 1   
    52   51   52 1   
    53   51   55 1   
    54   51   56 1   
    55   52   53 2   
    56   52   57 1   
    57   57   58 1   
    58   57   65 1   
    59   58   59 1   
    60   58   61 1   
    61   58   66 1   
    62   59   60 2   
    63   59   69 1   
    64   61   62 1   
    65   61   67 1   
    66   61   68 1   
    67   62   63 1   
    68   62   64 1   
    69   69   70 1   
    70   69   73 1   
    71   70   71 1   
    72   70   74 1   
    73   70   75 1   
    74   71   72 2   
    75   71   76 1   
    76   76   77 1   
    77   76   85 1   
    78   77   78 1   
    79   77   80 1   
    80   77   86 1   
    81   78   79 2   
    82   78   93 1   
    83   80   81 1   
    84   80   87 1   
    85   80   88 1   
    86   81   82 1   
    87   81   89 1   
    88   81   90 1   
    89   82   83 1   
    90   82   84 2   
    91   83   91 1   
    92   83   92 1   
    93   93   94 1   
    94   93  100 1   
    95   94   95 1   
    96   94   97 1   
    97   94  101 1   
    98   95   96 2   
    99   95  109 1   
   100   97   98 1   
   101   97   99 1   
   102   97  102 1   
   103   98  103 1   
   104   98  104 1   
   105   98  105 1   
   106   99  106 1   
   107   99  107 1   
   108   99  108 1   
   109  109  110 1   
   110  109  117 1   
   111  110  111 1   
   112  110  113 1   
   113  110  118 1   
   114  111  112 2   
   115  111  123 1   
   116  113  114 1   
   117  113  119 1   
   118  113  120 1   
   119  114  115 1   
   120  114  116 2   
   121  115  121 1   
   122  115  122 1   
   123  123  124 1   
   124  123  135 1   
   125  124  125 1   
   126  124  127 1   
   127  124  136 1   
   128  125  126 2   
   129  125  144 1   
   130  127  128 1   
   131  127  137 1   
   132  127  138 1   
   133  128  129 ar  
   134  128  130 ar  
   135  129  131 ar  
   136  129  139 1   
   137  130  132 ar  
   138  130  140 1   
   139  131  133 ar  
   140  131  141 1   
   141  132  133 ar  
   142  132  142 1   
   143  133  134 1   
   144  134  143 1   
   145  144  145 1   
   146  144  153 1   
   147  145  146 1   
   148  145  148 1   
   149  145  154 1   
   150  146  147 2   
   151  146  159 1   
   152  148  149 1   
   153  148  155 1   
   154  148  156 1   
   155  149  150 1   
   156  149  157 1   
   157  149  158 1   
   158  150  151 1   
   159  150  152 1   
   160  159  160 1   
   161  159  168 1   
   162  160  161 1   
   163  160  163 1   
   164  160  169 1   
   165  161  162 2   
   166  161  174 1   
   167  163  164 1   
   168  163  170 1   
   169  163  171 1   
   170  164  165 1   
   171  164  172 1   
   172  164  173 1   
   173  165  166 1   
   174  165  167 1   
   175  174  175 1   
   176  174  179 1   
   177  175  176 1   
   178  175  177 1   
   179  175  178 1   
   180  181  182 1   
   181  181  183 1   
   182  184  185 1   
   183  184  186 1   
   184  187  188 1   
   185  187  189 1   
@<TRIPOS>SUBSTRUCTURE
     1 MOL         1 TEMP              0 ****  ****    0 ROOT
