@<TRIPOS>MOLECULE
MOL
  179   176     1     0     0
SMALL
resp


@<TRIPOS>ATOM
      1 C1          1.8770    3.0930    5.5610 c3        1 MOL     -0.258887
      2 C2          1.4060    2.4430    4.1880 c         1 MOL      0.785474
      3 O1          2.1900    2.2020    3.2480 o         1 MOL     -0.618743
      4 H1          1.4980    2.4980    6.3920 hc        1 MOL      0.066504
      5 H2          2.9670    3.1150    5.5980 hc        1 MOL      0.066504
      6 H3          1.4890    4.1090    5.6350 hc        1 MOL      0.066504
      7 N1          0.0680    2.1680    4.0880 n         1 MOL     -0.671001
      8 C3         -0.6380    2.1910    2.7600 c3        1 MOL      0.138808
      9 C4         -0.3590    3.5580    2.1260 c         1 MOL      0.428174
     10 O2         -0.9490    4.5640    2.5250 o         1 MOL     -0.568371
     11 C5         -2.1300    1.7890    2.9450 c3        1 MOL      0.001989
     12 C6         -2.8780    1.5580    1.6100 c         1 MOL      0.461474
     13 O3         -4.0180    1.1420    1.5420 o         1 MOL     -0.459080
     14 O4         -2.2340    1.8930    0.5100 o         1 MOL     -0.459080
     15 H4         -0.5640    1.9850    4.8630 hn        1 MOL      0.332166
     16 H5         -0.2010    1.4130    2.1440 h1        1 MOL     -0.004691
     17 H6         -2.6410    2.4830    3.5980 hc        1 MOL      0.014200
     18 H7         -2.2130    0.8340    3.4740 hc        1 MOL      0.014200
     19 N2          0.3110    3.6620    0.9760 n         1 MOL     -0.072962
     20 C7          0.7080    4.9490    0.3910 c3        1 MOL     -0.330246
     21 C8         -0.3090    5.5650   -0.6000 c         1 MOL      0.639220
     22 O5         -0.1110    6.5450   -1.2140 o         1 MOL     -0.566611
     23 C9          2.1280    4.7210   -0.1710 c3        1 MOL      0.260809
     24 C10         2.9150    6.0890   -0.3190 c3        1 MOL     -0.106332
     25 C11         4.4000    5.7040   -0.3490 c3        1 MOL      0.073773
     26 C12         5.2600    6.8520   -0.6000 c3        1 MOL     -0.090212
     27 N3          4.9220    7.6130   -1.8200 n4        1 MOL     -0.435142
     28 H8          0.6230    2.8070    0.5240 hn        1 MOL      0.155750
     29 H9          0.8000    5.7390    1.1350 h1        1 MOL      0.126903
     30 H10         2.0590    4.1960   -1.1170 hc        1 MOL     -0.004267
     31 H11         2.7060    4.1760    0.5860 hc        1 MOL     -0.004267
     32 H12         2.7770    6.6780    0.5920 hc        1 MOL      0.023006
     33 H13         2.5160    6.5710   -1.2200 hc        1 MOL      0.023006
     34 H14         4.5250    5.0460   -1.2070 hc        1 MOL      0.030187
     35 H15         4.7660    5.2230    0.5670 hc        1 MOL      0.030187
     36 H16         6.3410    6.6690   -0.5850 hx        1 MOL      0.122434
     37 H17         5.1500    7.4880    0.2740 hx        1 MOL      0.122434
     38 H18         4.7490    6.9930   -2.5910 hn        1 MOL      0.347545
     39 H19         4.0890    8.1710   -1.7010 hn        1 MOL      0.347545
     40 H20         5.6940    8.1880   -2.1070 hn        1 MOL      0.347545
     41 N4         -1.4880    4.9000   -0.6990 n         1 MOL     -0.323572
     42 C13        -2.6040    5.2940   -1.5470 c3        1 MOL      0.040828
     43 C14        -4.0540    5.0280   -1.0590 c         1 MOL      0.276704
     44 O6         -5.0400    5.6160   -1.5700 o         1 MOL     -0.505652
     45 C15        -2.3920    4.5880   -2.9200 c3        1 MOL     -0.279518
     46 C16        -2.0880    3.1340   -2.7270 c         1 MOL      0.882306
     47 O7         -2.9640    2.2820   -2.7120 o         1 MOL     -0.805729
     48 O8         -0.9110    2.7760   -2.5740 o         1 MOL     -0.805729
     49 H21        -1.6090    4.0320   -0.2030 hn        1 MOL      0.085893
     50 H22        -2.6130    6.3740   -1.7110 h1        1 MOL      0.092101
     51 H23        -1.6490    5.0390   -3.5770 hc        1 MOL      0.071964
     52 H24        -3.3330    4.6660   -3.4600 hc        1 MOL      0.071964
     53 N5         -4.1760    4.0830   -0.2190 n         1 MOL      0.044352
     54 C17        -5.4540    3.9340    0.4350 c3        1 MOL     -0.077129
     55 C18        -6.3300    2.9020   -0.2070 c         1 MOL      0.526201
     56 O9         -7.3850    3.2870   -0.7230 o         1 MOL     -0.536928
     57 H25        -3.3150    3.7030    0.1300 hn        1 MOL      0.142301
     58 H26        -6.0120    4.8600    0.3810 h1        1 MOL      0.059981
     59 H27        -5.2300    3.8300    1.4990 h1        1 MOL      0.059981
     60 N6         -5.8470    1.6240   -0.3520 n         1 MOL     -0.158077
     61 C19        -6.6650    0.5190   -0.9220 c3        1 MOL      0.015937
     62 C20        -6.9310   -0.5970    0.1040 c         1 MOL      0.317621
     63 O10        -7.7350   -1.4930   -0.1520 o         1 MOL     -0.469739
     64 C21        -6.0650    0.0250   -2.2480 c3        1 MOL     -0.104997
     65 C22        -4.6260   -0.4900   -2.1710 c         1 MOL      0.662138
     66 N7         -4.2510   -1.0810   -3.2440 n         1 MOL     -0.654659
     67 O11        -3.8500   -0.4900   -1.2240 o         1 MOL     -0.511155
     68 H28        -4.9900    1.4850    0.1700 hn        1 MOL     -0.181552
     69 H29        -7.6120    1.0230   -1.1000 h1        1 MOL      0.086092
     70 H30        -6.0410    0.7770   -3.0430 hc        1 MOL      0.062066
     71 H31        -6.7470   -0.7490   -2.5770 hc        1 MOL      0.062066
     72 H32        -4.8340   -1.2280   -4.0680 hn        1 MOL      0.301759
     73 H33        -3.2840   -1.3460   -3.3980 hn        1 MOL      0.301759
     74 N8         -6.2150   -0.5770    1.2490 n         1 MOL     -0.090781
     75 C23        -6.2630   -1.6670    2.2360 c3        1 MOL     -0.374233
     76 C24        -5.0330   -2.5760    2.1480 c         1 MOL      0.816634
     77 O12        -5.0010   -3.6200    2.8030 o         1 MOL     -0.631174
     78 H34        -5.6810    0.2670    1.4270 hn        1 MOL      0.179097
     79 H35        -7.1470   -2.2810    2.0950 h1        1 MOL      0.147720
     80 H36        -6.1270   -1.2880    3.2530 h1        1 MOL      0.147720
     81 N9         -4.0190   -2.1850    1.4260 n         1 MOL     -0.777251
     82 C25        -2.8790   -3.0110    1.1440 c3        1 MOL      0.805882
     83 C26        -1.5650   -2.2690    1.0880 c         1 MOL     -0.002478
     84 O13        -1.5260   -1.0550    0.7630 o         1 MOL     -0.394318
     85 C27        -3.0080   -3.7820   -0.1470 c3        1 MOL      0.060458
     86 C28        -4.2320   -4.6900   -0.1360 ca        1 MOL     -0.227180
     87 C29        -5.4820   -4.2820   -0.7260 ca        1 MOL      0.008709
     88 C30        -4.1450   -5.9520    0.4860 ca        1 MOL      0.008709
     89 C31        -6.5140   -5.1620   -0.8750 ca        1 MOL     -0.295082
     90 C32        -5.1760   -6.8540    0.2990 ca        1 MOL     -0.295082
     91 C33        -6.3340   -6.5300   -0.4640 ca        1 MOL      0.357191
     92 O14        -7.2590   -7.5810   -0.6760 oh        1 MOL     -0.511930
     93 H37        -4.0370   -1.2890    0.9510 hn        1 MOL      0.344206
     94 H38        -2.7960   -3.7830    1.9090 h1        1 MOL     -0.081576
     95 H39        -2.1520   -4.4610   -0.2350 hc        1 MOL     -0.028306
     96 H40        -3.0460   -3.0300   -0.9260 hc        1 MOL     -0.028306
     97 H41        -5.5250   -3.3180   -1.2040 ha        1 MOL      0.070402
     98 H42        -3.2180   -6.2590    0.9440 ha        1 MOL      0.070402
     99 H43        -7.4400   -4.8860   -1.3610 ha        1 MOL      0.155018
    100 H44        -5.1400   -7.8110    0.8030 ha        1 MOL      0.155018
    101 H45        -7.0630   -8.3970   -0.2030 ho        1 MOL      0.356546
    102 N10        -0.4910   -3.0300    1.2760 n         1 MOL     -0.530038
    103 C34         0.9410   -2.5960    1.3380 c3        1 MOL     -0.133757
    104 C35         1.7880   -3.6290    0.5410 c         1 MOL      0.666958
    105 O15         1.9210   -4.7800    0.9340 o         1 MOL     -0.557421
    106 C36         1.3810   -2.5200    2.7950 c3        1 MOL      0.182325
    107 C37         0.4430   -1.6150    3.5910 c3        1 MOL      0.265850
    108 C38         2.8910   -2.1470    2.9380 c3        1 MOL     -0.266329
    109 C39         0.9820   -1.1280    4.9420 c3        1 MOL     -0.175254
    110 H46        -0.7130   -4.0100    1.3730 hn        1 MOL      0.349098
    111 H47         0.9440   -1.6480    0.7930 h1        1 MOL      0.070792
    112 H48         1.3910   -3.5370    3.1890 hc        1 MOL     -0.002474
    113 H49        -0.4490   -2.2050    3.8090 hc        1 MOL     -0.035171
    114 H50         0.1380   -0.7520    2.9900 hc        1 MOL     -0.035171
    115 H51         3.2650   -2.5970    3.8620 hc        1 MOL      0.042489
    116 H52         3.4650   -2.5370    2.0960 hc        1 MOL      0.042489
    117 H53         3.0170   -1.0630    2.8790 hc        1 MOL      0.042489
    118 H54         1.2010   -2.0100    5.5440 hc        1 MOL      0.022650
    119 H55         1.8590   -0.4860    4.8790 hc        1 MOL      0.022650
    120 H56         0.1840   -0.6230    5.4900 hc        1 MOL      0.022650
    121 N11         2.2550   -3.1830   -0.6300 n         1 MOL     -0.339078
    122 C40         3.2670   -3.8870   -1.3740 c3        1 MOL      0.110039
    123 C41         4.6890   -3.7490   -0.7740 c         1 MOL      0.215718
    124 O16         4.8970   -2.9180    0.1210 o         1 MOL     -0.232198
    125 C42         3.2540   -3.3380   -2.8130 c3        1 MOL      0.259241
    126 O17         2.0330   -3.6760   -3.2820 oh        1 MOL     -0.634423
    127 H57         2.0130   -2.2510   -0.9420 hn        1 MOL      0.153075
    128 H58         2.9680   -4.9310   -1.4040 h1        1 MOL      0.072548
    129 H59         4.0390   -3.7890   -3.4160 h1        1 MOL     -0.022660
    130 H60         3.2420   -2.2500   -2.7760 h1        1 MOL     -0.022660
    131 H61         1.8790   -3.3390   -4.1690 ho        1 MOL      0.409654
    132 N12         5.6170   -4.6090   -1.3140 n         1 MOL     -0.383387
    133 C43         7.0490   -4.5670   -0.8800 c3        1 MOL      0.156336
    134 C44         7.6410   -3.1400   -0.8570 c         1 MOL      0.413308
    135 O18         8.4520   -2.8300    0.0050 o         1 MOL     -0.478828
    136 C45         7.7640   -5.5410   -1.7920 c3        1 MOL     -0.370319
    137 H62         5.4590   -5.2760   -2.0540 hn        1 MOL      0.283423
    138 H63         6.9890   -4.9350    0.1460 h1        1 MOL      0.079214
    139 H64         7.5360   -5.2720   -2.8200 hc        1 MOL      0.113335
    140 H65         8.8280   -5.3670   -1.6980 hc        1 MOL      0.113335
    141 H66         7.5210   -6.5880   -1.5910 hc        1 MOL      0.113335
    142 N13         7.2820   -2.3570   -1.8990 n         1 MOL     -0.315581
    143 C46         7.7450   -0.9640   -2.0770 c3        1 MOL      0.153386
    144 C47         7.1860   -0.0610   -1.0640 c         1 MOL      0.298244
    145 O19         7.8670    0.8770   -0.5550 o         1 MOL     -0.521795
    146 C48         7.4020   -0.4900   -3.4440 c3        1 MOL     -0.348837
    147 H67         6.8740   -2.7940   -2.7000 hn        1 MOL      0.222911
    148 H68         8.8320   -0.9120   -1.9810 h1        1 MOL      0.086724
    149 H69         7.3870    0.6050   -3.4780 hc        1 MOL      0.103126
    150 H70         8.2480   -0.6250   -4.1200 hc        1 MOL      0.103126
    151 H71         6.5140   -0.9620   -3.8590 hc        1 MOL      0.103126
    152 N14         5.9520   -0.2110   -0.6560 n         1 MOL     -0.125241
    153 C49         5.2450    0.6230    0.3480 c3        1 MOL     -0.016444
    154 C50         5.8180    0.3190    1.7600 c         1 MOL      0.471672
    155 O20         6.0550    1.2120    2.5540 o         1 MOL     -0.549541
    156 C51         3.7510    0.3310    0.3450 c3        1 MOL      0.025647
    157 C52         3.0260    0.9610   -0.8380 c3        1 MOL      0.322509
    158 C53         1.5850    0.5050   -0.9200 c         1 MOL      0.481845
    159 O21         1.3280   -0.4370   -1.7270 o         1 MOL     -0.639176
    160 O22         0.7630    1.2420   -0.2910 o         1 MOL     -0.639176
    161 H72         5.4600   -0.9780   -1.0850 hn        1 MOL      0.073525
    162 H73         5.3000    1.6650    0.0370 h1        1 MOL      0.033436
    163 H74         3.2940    0.7180    1.2600 hc        1 MOL      0.046351
    164 H75         3.5850   -0.7430    0.3310 hc        1 MOL      0.046351
    165 H76         3.4680    0.7970   -1.8250 hc        1 MOL     -0.118394
    166 H77         3.1700    2.0340   -0.7160 hc        1 MOL     -0.118394
    167 N15         6.1740   -0.9530    1.9890 n         1 MOL     -0.009468
    168 C54         6.9890   -1.4070    3.0550 c3        1 MOL     -0.273498
    169 H78         6.4590   -2.1780    3.6140 h1        1 MOL      0.099720
    170 H79         7.9140   -1.8210    2.6540 h1        1 MOL      0.099720
    171 H80         7.2200   -0.5730    3.7180 h1        1 MOL      0.099720
    172 H81         5.8750   -1.6520    1.3230 hn        1 MOL      0.059174
    173 Ca1        -1.4240    0.4800   -1.4310 Ca        1 MOL      1.717004
    174 O23        -1.5200   -0.2290   -4.2640 oh        1 MOL     -0.879875
    175 H82        -1.2300   -1.0590   -4.6530 ho        1 MOL      0.428026
    176 H83        -1.8930    0.2620   -4.9970 ho        1 MOL      0.428026
    177 O24        -0.8950   -2.0890   -2.0530 oh        1 MOL     -0.879875
    178 H84         0.0610   -2.0590   -2.0120 ho        1 MOL      0.428026
    179 H85        -1.0930   -2.9290   -2.4460 ho        1 MOL      0.428026
@<TRIPOS>BOND
     1    1    2 1   
     2    1    4 1   
     3    1    5 1   
     4    1    6 1   
     5    2    3 2   
     6    2    7 1   
     7    7    8 1   
     8    7   15 1   
     9    8    9 1   
    10    8   11 1   
    11    8   16 1   
    12    9   10 2   
    13    9   19 1   
    14   11   12 1   
    15   11   17 1   
    16   11   18 1   
    17   12   13 1   
    18   12   14 1   
    19   19   20 1   
    20   19   28 1   
    21   20   21 1   
    22   20   23 1   
    23   20   29 1   
    24   21   22 2   
    25   21   41 1   
    26   23   24 1   
    27   23   30 1   
    28   23   31 1   
    29   24   25 1   
    30   24   32 1   
    31   24   33 1   
    32   25   26 1   
    33   25   34 1   
    34   25   35 1   
    35   26   27 1   
    36   26   36 1   
    37   26   37 1   
    38   27   38 1   
    39   27   39 1   
    40   27   40 1   
    41   41   42 1   
    42   41   49 1   
    43   42   43 1   
    44   42   45 1   
    45   42   50 1   
    46   43   44 2   
    47   43   53 1   
    48   45   46 1   
    49   45   51 1   
    50   45   52 1   
    51   46   47 1   
    52   46   48 1   
    53   53   54 1   
    54   53   57 1   
    55   54   55 1   
    56   54   58 1   
    57   54   59 1   
    58   55   56 2   
    59   55   60 1   
    60   60   61 1   
    61   60   68 1   
    62   61   62 1   
    63   61   64 1   
    64   61   69 1   
    65   62   63 2   
    66   62   74 1   
    67   64   65 1   
    68   64   70 1   
    69   64   71 1   
    70   65   66 1   
    71   65   67 2   
    72   66   72 1   
    73   66   73 1   
    74   74   75 1   
    75   74   78 1   
    76   75   76 1   
    77   75   79 1   
    78   75   80 1   
    79   76   77 2   
    80   76   81 1   
    81   81   82 1   
    82   81   93 1   
    83   82   83 1   
    84   82   85 1   
    85   82   94 1   
    86   83   84 2   
    87   83  102 1   
    88   85   86 1   
    89   85   95 1   
    90   85   96 1   
    91   86   87 ar  
    92   86   88 ar  
    93   87   89 ar  
    94   87   97 1   
    95   88   90 ar  
    96   88   98 1   
    97   89   91 ar  
    98   89   99 1   
    99   90   91 ar  
   100   90  100 1   
   101   91   92 1   
   102   92  101 1   
   103  102  103 1   
   104  102  110 1   
   105  103  104 1   
   106  103  106 1   
   107  103  111 1   
   108  104  105 2   
   109  104  121 1   
   110  106  107 1   
   111  106  108 1   
   112  106  112 1   
   113  107  109 1   
   114  107  113 1   
   115  107  114 1   
   116  108  115 1   
   117  108  116 1   
   118  108  117 1   
   119  109  118 1   
   120  109  119 1   
   121  109  120 1   
   122  121  122 1   
   123  121  127 1   
   124  122  123 1   
   125  122  125 1   
   126  122  128 1   
   127  123  124 2   
   128  123  132 1   
   129  125  126 1   
   130  125  129 1   
   131  125  130 1   
   132  126  131 1   
   133  132  133 1   
   134  132  137 1   
   135  133  134 1   
   136  133  136 1   
   137  133  138 1   
   138  134  135 2   
   139  134  142 1   
   140  136  139 1   
   141  136  140 1   
   142  136  141 1   
   143  142  143 1   
   144  142  147 1   
   145  143  144 1   
   146  143  146 1   
   147  143  148 1   
   148  144  145 2   
   149  144  152 1   
   150  146  149 1   
   151  146  150 1   
   152  146  151 1   
   153  152  153 1   
   154  152  161 1   
   155  153  154 1   
   156  153  156 1   
   157  153  162 1   
   158  154  155 2   
   159  154  167 1   
   160  156  157 1   
   161  156  163 1   
   162  156  164 1   
   163  157  158 1   
   164  157  165 1   
   165  157  166 1   
   166  158  159 1   
   167  158  160 1   
   168  167  168 1   
   169  167  172 1   
   170  168  169 1   
   171  168  170 1   
   172  168  171 1   
   173  174  175 1   
   174  174  176 1   
   175  177  178 1   
   176  177  179 1   
@<TRIPOS>SUBSTRUCTURE
     1 MOL         1 TEMP              0 ****  ****    0 ROOT
