@<TRIPOS>MOLECULE
MOL
  178   175     1     0     0
SMALL
resp


@<TRIPOS>ATOM
      1 C1          0.8730   -3.1290    5.6720 c3        1 MOL     -0.302749
      2 C2          0.8000   -2.7320    4.1930 c         1 MOL      0.798034
      3 O1         -0.1230   -3.1730    3.4700 o         1 MOL     -0.645320
      4 H1          0.2520   -4.0080    5.8430 hc        1 MOL      0.069699
      5 H2          1.9060   -3.3580    5.9360 hc        1 MOL      0.069699
      6 H3          0.5150   -2.3050    6.2880 hc        1 MOL      0.069699
      7 N1          1.7270   -1.9780    3.6970 n         1 MOL     -0.548443
      8 C3          1.9250   -1.8220    2.1870 c3        1 MOL     -0.012103
      9 C4          2.4220   -3.0830    1.5450 c         1 MOL      0.419992
     10 O2          3.6570   -3.3380    1.6650 o         1 MOL     -0.451312
     11 C5          2.8510   -0.6370    1.9890 c3        1 MOL     -0.152290
     12 C6          3.4210   -0.4810    0.5620 c         1 MOL      0.478480
     13 O3          4.5310    0.1100    0.4820 o         1 MOL     -0.391512
     14 O4          2.6470   -0.8380   -0.3850 o         1 MOL     -0.391512
     15 H4          2.3900   -1.4810    4.2670 hn        1 MOL      0.288920
     16 H5          1.0010   -1.4440    1.7450 h1        1 MOL      0.070223
     17 H6          3.6840   -0.7510    2.6810 hc        1 MOL      0.057216
     18 H7          2.3970    0.2710    2.3900 hc        1 MOL      0.057216
     19 N2          1.5770   -3.7330    0.7320 n         1 MOL     -0.339510
     20 C7          1.9540   -4.9610   -0.0220 c3        1 MOL      0.204588
     21 C8          3.1090   -4.6690   -1.1020 c         1 MOL      0.451051
     22 O5          3.3410   -5.6180   -1.8280 o         1 MOL     -0.547652
     23 C9          0.7030   -5.5670   -0.6900 c3        1 MOL     -0.339606
     24 H8          0.6590   -3.3330    0.5770 hn        1 MOL      0.323673
     25 H9          2.4310   -5.7000    0.6230 h1        1 MOL      0.027430
     26 H10        -0.2060   -5.5530   -0.0790 hc        1 MOL      0.096901
     27 H11         0.4000   -4.9790   -1.5580 hc        1 MOL      0.096901
     28 H12         0.9570   -6.5870   -0.9740 hc        1 MOL      0.096901
     29 N3          3.7250   -3.4520   -1.1490 n         1 MOL      0.017812
     30 C10         4.9310   -3.0920   -1.9250 c3        1 MOL     -0.049531
     31 C11         6.1790   -2.8680   -1.1090 c         1 MOL      0.296080
     32 O6          7.2040   -2.7210   -1.7170 o         1 MOL     -0.452748
     33 C12         4.6960   -1.8970   -2.8410 c3        1 MOL     -0.049312
     34 C13         3.4080   -2.0550   -3.6600 c         1 MOL      0.727686
     35 O7          3.4200   -2.7220   -4.7290 o         1 MOL     -0.727278
     36 O8          2.3700   -1.4790   -3.3860 o         1 MOL     -0.727278
     37 H13         3.4060   -2.7510   -0.4810 hn        1 MOL     -0.231700
     38 H14         5.1980   -3.9480   -2.5400 h1        1 MOL      0.100405
     39 H15         5.4920   -1.8270   -3.5810 hc        1 MOL     -0.019309
     40 H16         4.6290   -0.9760   -2.2640 hc        1 MOL     -0.019309
     41 N4          6.0610   -2.9430    0.2530 n         1 MOL     -0.025797
     42 C14         7.1450   -2.7020    1.2270 c3        1 MOL      0.021469
     43 C15         8.0340   -1.5400    0.7910 c         1 MOL      0.348631
     44 O9          9.2300   -1.7320    0.7900 o         1 MOL     -0.530077
     45 H17         5.1680   -3.2020    0.6580 hn        1 MOL      0.027028
     46 H18         7.7200   -3.6150    1.2890 h1        1 MOL      0.034233
     47 H19         6.7120   -2.4330    2.2000 h1        1 MOL      0.034233
     48 N5          7.3970   -0.4820    0.3040 n         1 MOL     -0.077603
     49 C16         8.0800    0.7040   -0.1410 c3        1 MOL      0.113296
     50 C17         7.7940    1.8660    0.8000 c         1 MOL      0.342264
     51 O10         8.6220    2.7710    0.9480 o         1 MOL     -0.534004
     52 C18         7.3800    0.8920   -1.5420 c3        1 MOL     -0.395690
     53 C19         7.5680    2.3230   -2.0650 c         1 MOL      0.717961
     54 N6          8.7290    2.8220   -2.4470 n         1 MOL     -0.832479
     55 O11         6.5520    3.1200   -2.1320 o         1 MOL     -0.573518
     56 H20         6.3970   -0.5640    0.2190 hn        1 MOL      0.021290
     57 H21         9.1710    0.5760   -0.1490 h1        1 MOL      0.055751
     58 H22         6.3090    0.7460   -1.3910 hc        1 MOL      0.134938
     59 H23         7.7310    0.1230   -2.2300 hc        1 MOL      0.134938
     60 H24         9.5200    2.2260   -2.2360 hn        1 MOL      0.381434
     61 H25         8.8390    3.8160   -2.6320 hn        1 MOL      0.381434
     62 N7          6.6280    1.8690    1.4340 n         1 MOL     -0.192416
     63 C20         6.2360    2.9400    2.3910 c3        1 MOL      0.099014
     64 C21         4.9030    3.6650    2.3370 c         1 MOL      0.552337
     65 O12         4.8220    4.6440    3.0440 o         1 MOL     -0.555902
     66 H26         5.9980    1.0760    1.3980 hn        1 MOL      0.110174
     67 H27         7.0150    3.6780    2.5190 h1        1 MOL      0.020906
     68 H28         6.1770    2.3800    3.3230 h1        1 MOL      0.020906
     69 N8          4.0090    3.1860    1.4480 n         1 MOL     -0.363905
     70 C22         2.7130    3.8630    1.2620 c3        1 MOL      0.088930
     71 C23         1.5950    2.8030    0.9060 c         1 MOL      0.411094
     72 O13         1.7630    1.9560    0.0320 o         1 MOL     -0.580894
     73 C24         2.7170    4.9450    0.1370 c3        1 MOL      0.261569
     74 C25         1.4070    5.6930   -0.1860 c3        1 MOL     -0.275436
     75 O14         3.5600    6.0740    0.4810 oh        1 MOL     -0.594642
     76 H29         4.1120    2.3060    0.9730 hn        1 MOL      0.118022
     77 H30         2.3880    4.3300    2.1940 h1        1 MOL      0.060008
     78 H31         3.0690    4.5490   -0.8240 h1        1 MOL      0.048522
     79 H32         3.3910    6.7330   -0.1940 ho        1 MOL      0.369951
     80 H33         0.6090    4.9930   -0.4350 hc        1 MOL      0.062796
     81 H34         1.0120    6.1460    0.7270 hc        1 MOL      0.062796
     82 H35         1.5530    6.4520   -0.9510 hc        1 MOL      0.062796
     83 N9          0.4540    2.9630    1.5610 n         1 MOL     -0.328032
     84 C26        -0.6630    2.0510    1.6040 c3        1 MOL      0.035381
     85 C27        -1.7160    2.5560    0.6250 c         1 MOL      0.579447
     86 O15        -1.9780    3.6950    0.5710 o         1 MOL     -0.596931
     87 C28        -1.2810    1.9600    3.0170 c3        1 MOL      0.041443
     88 C29        -0.1770    1.6180    4.0320 c3        1 MOL      0.083463
     89 C30        -2.4590    0.9700    3.1990 c3        1 MOL     -0.146826
     90 C31        -0.5860    1.8780    5.4330 c3        1 MOL     -0.075033
     91 H36         0.4380    3.8140    2.1000 hn        1 MOL      0.252668
     92 H37        -0.3900    1.0280    1.3690 h1        1 MOL      0.118057
     93 H38        -1.6490    2.9590    3.2350 hc        1 MOL     -0.021032
     94 H39         0.7620    2.1430    3.8720 hc        1 MOL     -0.022581
     95 H40         0.0800    0.5650    3.9210 hc        1 MOL     -0.022581
     96 H41        -2.9190    1.0610    4.1810 hc        1 MOL      0.033863
     97 H42        -3.2630    1.2220    2.5150 hc        1 MOL      0.033863
     98 H43        -2.1720   -0.0810    3.1180 hc        1 MOL      0.033863
     99 H44        -1.6100    1.5860    5.6790 hc        1 MOL      0.006245
    100 H45         0.0360    1.3010    6.1110 hc        1 MOL      0.006245
    101 H46        -0.4050    2.8970    5.7690 hc        1 MOL      0.006245
    102 N10        -2.3050    1.6360   -0.0960 n         1 MOL     -0.109420
    103 C32        -3.5400    1.8480   -0.9730 c3        1 MOL      0.029187
    104 C33        -4.9000    1.4380   -0.3610 c         1 MOL      0.483468
    105 O16        -4.8400    0.6690    0.5890 o         1 MOL     -0.380518
    106 C34        -3.3620    1.1270   -2.3580 c3        1 MOL     -0.445777
    107 C35        -2.1690    1.6990   -3.1070 c         1 MOL      0.816176
    108 O17        -1.1110    0.9940   -3.1710 o         1 MOL     -0.710574
    109 O18        -2.3550    2.7760   -3.7240 o         1 MOL     -0.710574
    110 H47        -1.8540    0.7290   -0.1210 hn        1 MOL     -0.111937
    111 H48        -3.6840    2.9040   -1.2360 h1        1 MOL      0.038378
    112 H49        -4.2160    1.1500   -3.0480 hc        1 MOL      0.146545
    113 H50        -3.1600    0.0900   -2.1020 hc        1 MOL      0.146545
    114 N11        -6.0080    1.8810   -0.9220 n         1 MOL     -0.605939
    115 C36        -7.3610    1.5400   -0.3960 c3        1 MOL      0.271820
    116 C37        -7.6470    0.0070   -0.2680 c         1 MOL      0.286189
    117 O19        -8.1700   -0.4760    0.7460 o         1 MOL     -0.461017
    118 C38        -8.3210    2.1540   -1.2410 c3        1 MOL     -0.048101
    119 C39        -9.7190    1.9540   -0.8610 ca        1 MOL     -0.021635
    120 C40       -10.1980    2.4390    0.3870 ca        1 MOL     -0.068591
    121 C41       -10.6200    1.2990   -1.7190 ca        1 MOL     -0.068591
    122 C42       -11.5610    2.1960    0.7530 ca        1 MOL     -0.197762
    123 C43       -11.9900    1.1460   -1.3870 ca        1 MOL     -0.197762
    124 C44       -12.4440    1.5090   -0.1120 ca        1 MOL     -0.034225
    125 H51        -5.8930    2.4820   -1.7310 hn        1 MOL      0.357297
    126 H52        -7.5760    1.9630    0.5790 h1        1 MOL      0.060755
    127 H53        -8.1480    1.8340   -2.2760 hc        1 MOL      0.024208
    128 H54        -8.0740    3.2140   -1.2830 hc        1 MOL      0.024208
    129 H55        -9.5350    3.0590    0.9740 ha        1 MOL      0.094704
    130 H56       -10.2210    0.8980   -2.6370 ha        1 MOL      0.094704
    131 H57       -11.9670    2.5460    1.6880 ha        1 MOL      0.127414
    132 H58       -12.5930    0.4810   -1.9820 ha        1 MOL      0.127414
    133 H59       -13.4330    1.1630    0.1410 ha        1 MOL      0.095034
    134 N12        -7.0580   -0.8350   -1.1840 n         1 MOL     -0.001972
    135 C45        -7.1490   -2.3180   -1.0780 c3        1 MOL      0.007433
    136 C46        -6.2080   -2.9330   -0.0390 c         1 MOL      0.414907
    137 O20        -6.7070   -3.7060    0.7810 o         1 MOL     -0.531883
    138 C47        -6.7750   -2.9190   -2.4780 c3        1 MOL     -0.109998
    139 C48        -6.0550   -1.7770   -3.0860 c3        1 MOL     -0.022975
    140 C49        -6.7880   -0.5270   -2.6290 c3        1 MOL     -0.058835
    141 H60        -8.1840   -2.5890   -0.8600 h1        1 MOL      0.061856
    142 H61        -6.1640   -3.8030   -2.3050 hc        1 MOL      0.055074
    143 H62        -7.7120   -3.1710   -2.9650 hc        1 MOL      0.055074
    144 H63        -5.0160   -1.7540   -2.7620 hc        1 MOL      0.037144
    145 H64        -6.1700   -1.8280   -4.1630 hc        1 MOL      0.037144
    146 H65        -6.2040    0.3620   -2.8750 h1        1 MOL      0.031759
    147 H66        -7.7270   -0.5990   -3.1860 h1        1 MOL      0.031759
    148 N13        -5.0380   -2.3380    0.2080 n         1 MOL     -0.118864
    149 C50        -4.1090   -2.6810    1.2240 c3        1 MOL     -0.167612
    150 C51        -4.6810   -2.3160    2.6420 c         1 MOL      0.447036
    151 O21        -4.3950   -3.0040    3.6270 o         1 MOL     -0.542678
    152 C52        -2.7940   -1.8760    0.9520 c3        1 MOL     -0.094482
    153 C53        -2.0990   -2.2620   -0.3400 c3        1 MOL     -0.099912
    154 C54        -0.8310   -1.5920   -0.8190 c         1 MOL      0.700107
    155 O22        -0.5030   -0.5050   -0.3300 o         1 MOL     -0.698692
    156 O23        -0.2570   -1.9680   -1.8660 o         1 MOL     -0.698692
    157 H67        -4.9630   -1.4030   -0.1580 hn        1 MOL      0.064403
    158 H68        -3.8580   -3.7350    1.2370 h1        1 MOL      0.139783
    159 H69        -2.1310   -2.1780    1.7630 hc        1 MOL      0.114948
    160 H70        -2.8840   -0.7920    0.9310 hc        1 MOL      0.114948
    161 H71        -2.8140   -2.2230   -1.1540 hc        1 MOL      0.016258
    162 H72        -1.8360   -3.3160   -0.2490 hc        1 MOL      0.016258
    163 N14        -5.4640   -1.1940    2.6990 n         1 MOL     -0.058188
    164 C55        -6.2080   -0.7000    3.8490 c3        1 MOL     -0.144760
    165 H73        -6.4240   -1.5280    4.5240 h1        1 MOL      0.056108
    166 H74        -5.6140    0.0490    4.3720 h1        1 MOL      0.056108
    167 H75        -7.1430   -0.2530    3.5120 h1        1 MOL      0.056108
    168 H76        -5.5360   -0.5190    1.9400 hn        1 MOL      0.113652
    169 Ca1         1.2210    0.2980   -2.1250 Ca        1 MOL      1.768629
    170 O24         0.6790    3.0310   -2.7050 oh        1 MOL     -0.777498
    171 H77        -0.2720    3.1190   -2.8010 ho        1 MOL      0.371610
    172 H78         1.0110    3.9290   -2.7580 ho        1 MOL      0.371610
    173 O25         1.3260    1.0550   -4.7560 oh        1 MOL     -0.777498
    174 H79         2.0890    1.6050   -4.9610 ho        1 MOL      0.371610
    175 H80         0.5840    1.5190   -5.1400 ho        1 MOL      0.371610
    176 O26         3.7030    1.4080   -2.0930 oh        1 MOL     -0.777498
    177 H81         3.9610    1.0530   -1.2450 ho        1 MOL      0.371610
    178 H82         4.5050    1.8100   -2.4420 ho        1 MOL      0.371610
@<TRIPOS>BOND
     1    1    2 1   
     2    1    4 1   
     3    1    5 1   
     4    1    6 1   
     5    2    3 2   
     6    2    7 1   
     7    7    8 1   
     8    7   15 1   
     9    8    9 1   
    10    8   11 1   
    11    8   16 1   
    12    9   10 2   
    13    9   19 1   
    14   11   12 1   
    15   11   17 1   
    16   11   18 1   
    17   12   13 1   
    18   12   14 1   
    19   19   20 1   
    20   19   24 1   
    21   20   21 1   
    22   20   23 1   
    23   20   25 1   
    24   21   22 2   
    25   21   29 1   
    26   23   26 1   
    27   23   27 1   
    28   23   28 1   
    29   29   30 1   
    30   29   37 1   
    31   30   31 1   
    32   30   33 1   
    33   30   38 1   
    34   31   32 2   
    35   31   41 1   
    36   33   34 1   
    37   33   39 1   
    38   33   40 1   
    39   34   35 1   
    40   34   36 1   
    41   41   42 1   
    42   41   45 1   
    43   42   43 1   
    44   42   46 1   
    45   42   47 1   
    46   43   44 2   
    47   43   48 1   
    48   48   49 1   
    49   48   56 1   
    50   49   50 1   
    51   49   52 1   
    52   49   57 1   
    53   50   51 2   
    54   50   62 1   
    55   52   53 1   
    56   52   58 1   
    57   52   59 1   
    58   53   54 1   
    59   53   55 2   
    60   54   60 1   
    61   54   61 1   
    62   62   63 1   
    63   62   66 1   
    64   63   64 1   
    65   63   67 1   
    66   63   68 1   
    67   64   65 2   
    68   64   69 1   
    69   69   70 1   
    70   69   76 1   
    71   70   71 1   
    72   70   73 1   
    73   70   77 1   
    74   71   72 2   
    75   71   83 1   
    76   73   74 1   
    77   73   75 1   
    78   73   78 1   
    79   74   80 1   
    80   74   81 1   
    81   74   82 1   
    82   75   79 1   
    83   83   84 1   
    84   83   91 1   
    85   84   85 1   
    86   84   87 1   
    87   84   92 1   
    88   85   86 2   
    89   85  102 1   
    90   87   88 1   
    91   87   89 1   
    92   87   93 1   
    93   88   90 1   
    94   88   94 1   
    95   88   95 1   
    96   89   96 1   
    97   89   97 1   
    98   89   98 1   
    99   90   99 1   
   100   90  100 1   
   101   90  101 1   
   102  102  103 1   
   103  102  110 1   
   104  103  104 1   
   105  103  106 1   
   106  103  111 1   
   107  104  105 2   
   108  104  114 1   
   109  106  107 1   
   110  106  112 1   
   111  106  113 1   
   112  107  108 1   
   113  107  109 1   
   114  114  115 1   
   115  114  125 1   
   116  115  116 1   
   117  115  118 1   
   118  115  126 1   
   119  116  117 2   
   120  116  134 1   
   121  118  119 1   
   122  118  127 1   
   123  118  128 1   
   124  119  120 ar  
   125  119  121 ar  
   126  120  122 ar  
   127  120  129 1   
   128  121  123 ar  
   129  121  130 1   
   130  122  124 ar  
   131  122  131 1   
   132  123  124 ar  
   133  123  132 1   
   134  124  133 1   
   135  134  135 1   
   136  134  140 1   
   137  135  136 1   
   138  135  138 1   
   139  135  141 1   
   140  136  137 2   
   141  136  148 1   
   142  138  139 1   
   143  138  142 1   
   144  138  143 1   
   145  139  140 1   
   146  139  144 1   
   147  139  145 1   
   148  140  146 1   
   149  140  147 1   
   150  148  149 1   
   151  148  157 1   
   152  149  150 1   
   153  149  152 1   
   154  149  158 1   
   155  150  151 2   
   156  150  163 1   
   157  152  153 1   
   158  152  159 1   
   159  152  160 1   
   160  153  154 1   
   161  153  161 1   
   162  153  162 1   
   163  154  155 1   
   164  154  156 1   
   165  163  164 1   
   166  163  168 1   
   167  164  165 1   
   168  164  166 1   
   169  164  167 1   
   170  170  171 1   
   171  170  172 1   
   172  173  174 1   
   173  173  175 1   
   174  176  177 1   
   175  176  178 1   
@<TRIPOS>SUBSTRUCTURE
     1 MOL         1 TEMP              0 ****  ****    0 ROOT
