@<TRIPOS>MOLECULE
MOL
  175   173     1     0     0
SMALL
resp


@<TRIPOS>ATOM
      1 C1          0.2250    4.8970    4.9490 c3        1 MOL     -0.420811
      2 C2         -0.3990    4.5310    3.5940 c         1 MOL      0.722848
      3 O1          0.3050    4.3700    2.6120 o         1 MOL     -0.565876
      4 H1         -0.5290    4.8090    5.7310 hc        1 MOL      0.099396
      5 H2          1.0520    4.2210    5.1640 hc        1 MOL      0.099396
      6 H3          0.5930    5.9230    4.9140 hc        1 MOL      0.099396
      7 N1         -1.7140    4.6130    3.5600 n         1 MOL     -0.629917
      8 C3         -2.3660    3.9710    2.3890 c3        1 MOL      0.278577
      9 C4         -2.6130    4.9390    1.1800 c         1 MOL      0.501926
     10 O2         -3.3410    5.9310    1.3980 o         1 MOL     -0.565932
     11 C5         -3.6200    3.2380    2.8570 c3        1 MOL     -0.436055
     12 C6         -4.2770    2.3190    1.8110 c         1 MOL      0.867582
     13 O3         -5.4620    2.0440    2.0890 o         1 MOL     -0.673876
     14 O4         -3.7160    2.0050    0.7090 o         1 MOL     -0.673876
     15 H4         -2.3250    4.8010    4.3530 hn        1 MOL      0.344157
     16 H5         -1.6770    3.1850    2.0990 h1        1 MOL      0.016239
     17 H6         -4.3410    3.9970    3.1510 hc        1 MOL      0.084612
     18 H7         -3.4000    2.6600    3.7520 hc        1 MOL      0.084612
     19 N2         -2.0470    4.5830    0.0150 n         1 MOL     -0.423949
     20 C7         -2.2980    5.3570   -1.1760 c3        1 MOL      0.318893
     21 C8         -3.5970    4.9540   -1.9430 c         1 MOL      0.406717
     22 O5         -4.1750    5.7550   -2.7030 o         1 MOL     -0.575642
     23 C9         -1.0660    5.0900   -2.0840 c3        1 MOL     -0.525280
     24 H8         -1.4700    3.7570   -0.0780 hn        1 MOL      0.273883
     25 H9         -2.4500    6.4060   -0.9310 h1        1 MOL      0.002610
     26 H10        -0.9090    4.0120   -2.1010 hc        1 MOL      0.141226
     27 H11        -1.2490    5.4480   -3.0890 hc        1 MOL      0.141226
     28 H12        -0.2030    5.5190   -1.5810 hc        1 MOL      0.141226
     29 N3         -4.0110    3.6670   -1.8990 n         1 MOL     -0.364575
     30 C10        -4.9060    3.1150   -2.9630 c3        1 MOL      0.146282
     31 C11        -5.9160    2.1770   -2.4420 c         1 MOL      0.290768
     32 O6         -6.7170    1.7340   -3.2770 o         1 MOL     -0.545685
     33 C12        -4.0480    2.3880   -4.0200 c3        1 MOL      0.060823
     34 C13        -3.2900    1.2370   -3.4550 c         1 MOL      0.571731
     35 O7         -3.4110    0.8880   -2.2600 o         1 MOL     -0.656329
     36 O8         -2.5820    0.5700   -4.2130 o         1 MOL     -0.656329
     37 H13        -3.4980    3.0590   -1.2770 hn        1 MOL      0.232094
     38 H14        -5.4310    3.9400   -3.4470 h1        1 MOL      0.082370
     39 H15        -3.3910    3.1620   -4.4040 hc        1 MOL     -0.018747
     40 H16        -4.7290    2.2070   -4.8500 hc        1 MOL     -0.018747
     41 N4         -5.9680    1.8810   -1.1250 n         1 MOL     -0.075480
     42 C14        -6.9890    1.0280   -0.5340 c3        1 MOL     -0.177188
     43 C15        -7.1290   -0.4130   -1.0330 c         1 MOL      0.497410
     44 O9         -8.1840   -1.0140   -0.7800 o         1 MOL     -0.591609
     45 H17        -5.1820    2.2500   -0.6040 hn        1 MOL      0.046728
     46 H18        -7.8810    1.6390   -0.7150 h1        1 MOL      0.089224
     47 H19        -6.7730    0.9910    0.5360 h1        1 MOL      0.089224
     48 N5         -6.0090   -0.9740   -1.6210 n         1 MOL     -0.235131
     49 C16        -5.9750   -2.3340   -2.2200 c3        1 MOL     -0.213872
     50 C17        -6.0050   -3.4730   -1.1300 c         1 MOL      0.556024
     51 O10        -5.9430   -4.6600   -1.5180 o         1 MOL     -0.542821
     52 C18        -4.7320   -2.4550   -3.1990 c3        1 MOL     -0.107490
     53 C19        -3.4530   -2.5690   -2.3300 c         1 MOL      0.334106
     54 N6         -2.3620   -3.0980   -2.9440 n         1 MOL     -0.459712
     55 O11        -3.4030   -2.0630   -1.2590 o         1 MOL     -0.518887
     56 H20        -5.1460   -0.4570   -1.5190 hn        1 MOL      0.286205
     57 H21        -6.8630   -2.5210   -2.8250 h1        1 MOL      0.147601
     58 H22        -4.6120   -1.5830   -3.8350 hc        1 MOL      0.090049
     59 H23        -4.9630   -3.1870   -3.9770 hc        1 MOL      0.090049
     60 H24        -2.4750   -3.6580   -3.7760 hn        1 MOL      0.289045
     61 H25        -1.4460   -2.9130   -2.5630 hn        1 MOL      0.289045
     62 N7         -6.1640   -3.0760    0.1560 n         1 MOL     -0.306359
     63 C20        -6.2810   -4.1870    1.1840 c3        1 MOL     -0.192930
     64 C21        -5.0070   -4.6950    1.8220 c         1 MOL      0.506368
     65 O12        -4.9980   -5.6080    2.6300 o         1 MOL     -0.553802
     66 H26        -5.9920   -2.1260    0.4540 hn        1 MOL      0.276950
     67 H27        -6.8230   -4.9790    0.6670 h1        1 MOL      0.112823
     68 H28        -6.9400   -3.8370    1.9870 h1        1 MOL      0.112823
     69 N8         -3.8900   -4.0050    1.4990 n         1 MOL     -0.085804
     70 C22        -2.5060   -4.4210    1.9080 c3        1 MOL     -0.544006
     71 C23        -1.5050   -3.2190    2.0590 c         1 MOL      0.818619
     72 O13        -1.7280   -2.1680    1.4290 o         1 MOL     -0.658139
     73 C24        -1.8720   -5.3310    0.8950 c3        1 MOL      0.766684
     74 C25        -2.2850   -6.7740    1.0490 c3        1 MOL     -0.525716
     75 O14        -1.8650   -4.9570   -0.4160 oh        1 MOL     -0.663402
     76 H29        -3.9600   -3.2250    0.8630 hn        1 MOL      0.090370
     77 H30        -2.5750   -4.8060    2.9280 h1        1 MOL      0.168053
     78 H31        -0.8110   -5.2840    1.1200 h1        1 MOL     -0.054715
     79 H32        -2.4310   -4.1840   -0.5000 ho        1 MOL      0.392773
     80 H33        -1.8480   -7.2850    1.8970 hc        1 MOL      0.113662
     81 H34        -3.3660   -6.8430    1.1020 hc        1 MOL      0.113662
     82 H35        -1.9270   -7.2660    0.1430 hc        1 MOL      0.113662
     83 N9         -0.4130   -3.4730    2.7550 n         1 MOL     -0.719520
     84 C26         0.7410   -2.5960    2.5270 c3        1 MOL      0.262544
     85 C27         1.5290   -3.0060    1.2960 c         1 MOL      0.399277
     86 O15         1.7630   -4.1700    1.0120 o         1 MOL     -0.549967
     87 C28         1.5730   -2.4460    3.8470 c3        1 MOL     -0.079927
     88 C29         1.1950   -1.1700    4.7030 c3        1 MOL     -0.086376
     89 C30         3.1010   -2.2790    3.6480 c3        1 MOL     -0.089394
     90 C31         1.8950   -0.9700    6.1180 c3        1 MOL     -0.140934
     91 H36        -0.2140   -4.4150    3.0400 hn        1 MOL      0.326656
     92 H37         0.3300   -1.5860    2.4210 h1        1 MOL      0.091688
     93 H38         1.3940   -3.3660    4.4060 hc        1 MOL      0.062361
     94 H39         0.1190   -1.1560    4.8350 hc        1 MOL      0.035939
     95 H40         1.3530   -0.2180    4.1930 hc        1 MOL      0.035939
     96 H41         3.6320   -2.3690    4.5940 hc        1 MOL      0.011266
     97 H42         3.5960   -2.9680    2.9560 hc        1 MOL      0.011266
     98 H43         3.2730   -1.3170    3.1520 hc        1 MOL      0.011266
     99 H44         2.0230   -1.9480    6.5970 hc        1 MOL      0.042972
    100 H45         2.9140   -0.6250    5.9160 hc        1 MOL      0.042972
    101 H46         1.3800   -0.2670    6.7750 hc        1 MOL      0.042972
    102 N10         1.8140   -1.9820    0.4810 n         1 MOL     -0.108751
    103 C32         2.6810   -2.0810   -0.7400 c3        1 MOL      0.032525
    104 C33         4.1230   -1.6610   -0.4690 c         1 MOL      0.408469
    105 O16         4.3900   -1.0780    0.5690 o         1 MOL     -0.352552
    106 C34         2.0380   -1.2870   -1.8880 c3        1 MOL     -0.252890
    107 C35         0.5680   -1.6130   -2.1700 c         1 MOL      0.711154
    108 O17        -0.3270   -1.0950   -1.4580 o         1 MOL     -0.672406
    109 O18         0.2990   -2.4070   -3.1320 o         1 MOL     -0.672406
    110 H47         1.5170   -1.0820    0.8270 hn        1 MOL      0.119768
    111 H48         2.6810   -3.1210   -1.0690 h1        1 MOL      0.069561
    112 H49         2.6630   -1.2550   -2.7770 hc        1 MOL      0.069036
    113 H50         2.0690   -0.2160   -1.7150 hc        1 MOL      0.069036
    114 N11         5.0150   -1.9850   -1.4160 n         1 MOL     -0.495594
    115 C36         6.4410   -1.6870   -1.2380 c3        1 MOL      0.183196
    116 C37         6.6820   -0.1680   -1.0830 c         1 MOL      0.238852
    117 O19         7.5000    0.2650   -0.2220 o         1 MOL     -0.438156
    118 C38         7.2340   -2.3140   -2.3970 c3        1 MOL     -0.149165
    119 C39         8.7340   -1.9710   -2.2210 ca        1 MOL      0.077775
    120 C40         9.5320   -2.5990   -1.2680 ca        1 MOL     -0.207477
    121 C41         9.2580   -0.9980   -3.0720 ca        1 MOL     -0.207477
    122 C42        10.9170   -2.2310   -1.2080 ca        1 MOL     -0.037673
    123 C43        10.6170   -0.6680   -3.0350 ca        1 MOL     -0.037673
    124 C44        11.4910   -1.3120   -2.1210 ca        1 MOL     -0.190092
    125 H51         4.7790   -2.4070   -2.3040 hn        1 MOL      0.293835
    126 H52         6.7660   -2.2560   -0.3650 h1        1 MOL      0.086588
    127 H53         6.8950   -2.0230   -3.3960 hc        1 MOL      0.067686
    128 H54         7.0740   -3.3870   -2.3540 hc        1 MOL      0.067686
    129 H55         9.1040   -3.2890   -0.5540 ha        1 MOL      0.131749
    130 H56         8.6080   -0.6120   -3.8320 ha        1 MOL      0.131749
    131 H57        11.5160   -2.6390   -0.4060 ha        1 MOL      0.094171
    132 H58        10.9680    0.0730   -3.7380 ha        1 MOL      0.094171
    133 H59        12.5370   -1.0840   -2.0470 ha        1 MOL      0.125014
    134 N12         6.0500    0.7530   -1.8070 n         1 MOL      0.077620
    135 C45         6.1590    2.2010   -1.6180 c3        1 MOL     -0.118031
    136 C46         5.7930    2.6550   -0.1790 c         1 MOL      0.294497
    137 O20         6.4060    3.5580    0.3960 o         1 MOL     -0.475871
    138 C47         5.2490    2.8510   -2.6770 c3        1 MOL      0.052612
    139 C48         5.4020    1.9260   -3.8670 c3        1 MOL     -0.007000
    140 C49         5.3460    0.5560   -3.1210 c3        1 MOL     -0.017403
    141 H60         7.1790    2.4750   -1.9050 h1        1 MOL      0.080766
    142 H61         4.2070    2.8360   -2.3660 hc        1 MOL      0.020535
    143 H62         5.4460    3.8640   -3.0020 hc        1 MOL      0.020535
    144 H63         4.6550    1.9700   -4.6580 hc        1 MOL      0.018250
    145 H64         6.4090    2.0060   -4.2990 hc        1 MOL      0.018250
    146 H65         4.3430    0.2050   -2.9020 h1        1 MOL      0.015984
    147 H66         5.8160   -0.1930   -3.7690 h1        1 MOL      0.015984
    148 N13         4.7330    2.0200    0.3450 n         1 MOL     -0.058582
    149 C50         4.1050    2.4740    1.5930 c3        1 MOL     -0.145686
    150 C51         4.9070    1.9280    2.7670 c         1 MOL      0.421737
    151 O21         5.0580    2.5280    3.8180 o         1 MOL     -0.572378
    152 C52         2.6210    1.9210    1.7650 c3        1 MOL     -0.069762
    153 C53         1.8500    2.3060    0.4850 c3        1 MOL      0.008439
    154 C54         0.4660    1.6660    0.3220 c         1 MOL      0.717285
    155 O22         0.2260    0.5940    1.0230 o         1 MOL     -0.758454
    156 O23        -0.4290    2.1310   -0.4340 o         1 MOL     -0.758454
    157 H67         4.3520    1.2270   -0.1410 hn        1 MOL      0.150941
    158 H68         4.0770    3.5680    1.6300 h1        1 MOL      0.138271
    159 H69         2.1330    2.2520    2.6770 hc        1 MOL      0.070209
    160 H70         2.5250    0.8310    1.8560 hc        1 MOL      0.070209
    161 H71         2.4100    2.0420   -0.4090 hc        1 MOL      0.004583
    162 H72         1.7450    3.3830    0.4400 hc        1 MOL      0.004583
    163 N14         5.6110    0.8240    2.5370 n         1 MOL      0.117056
    164 C55         6.5940    0.2720    3.3640 c3        1 MOL     -0.217013
    165 H73         7.5150    0.1410    2.7950 h1        1 MOL      0.069430
    166 H74         6.7800    0.9400    4.2050 h1        1 MOL      0.069430
    167 H75         6.2570   -0.6950    3.7360 h1        1 MOL      0.069430
    168 H76         5.5040    0.4800    1.5980 hn        1 MOL     -0.048663
    169 Ca1        -2.1470    0.1300   -0.1180 Ca        1 MOL      1.697437
    170 O24        -4.4650   -0.5610    1.2370 oh        1 MOL     -0.748326
    171 H77        -4.7470    0.3420    1.4390 ho        1 MOL      0.354528
    172 H78        -4.9960   -1.1050    1.8090 ho        1 MOL      0.354528
    173 O25        -1.8280    0.5520    2.5870 oh        1 MOL     -0.748326
    174 H79        -1.8730    0.1240    3.4430 ho        1 MOL      0.354528
    175 H80        -0.9000    0.5810    2.3850 ho        1 MOL      0.354528
@<TRIPOS>BOND
     1    1    2 1   
     2    1    4 1   
     3    1    5 1   
     4    1    6 1   
     5    2    3 2   
     6    2    7 1   
     7    7    8 1   
     8    7   15 1   
     9    8    9 1   
    10    8   11 1   
    11    8   16 1   
    12    9   10 2   
    13    9   19 1   
    14   11   12 1   
    15   11   17 1   
    16   11   18 1   
    17   12   13 1   
    18   12   14 1   
    19   19   20 1   
    20   19   24 1   
    21   20   21 1   
    22   20   23 1   
    23   20   25 1   
    24   21   22 2   
    25   21   29 1   
    26   23   26 1   
    27   23   27 1   
    28   23   28 1   
    29   29   30 1   
    30   29   37 1   
    31   30   31 1   
    32   30   33 1   
    33   30   38 1   
    34   31   32 2   
    35   31   41 1   
    36   33   34 1   
    37   33   39 1   
    38   33   40 1   
    39   34   35 1   
    40   34   36 1   
    41   41   42 1   
    42   41   45 1   
    43   42   43 1   
    44   42   46 1   
    45   42   47 1   
    46   43   44 2   
    47   43   48 1   
    48   48   49 1   
    49   48   56 1   
    50   49   50 1   
    51   49   52 1   
    52   49   57 1   
    53   50   51 2   
    54   50   62 1   
    55   52   53 1   
    56   52   58 1   
    57   52   59 1   
    58   53   54 1   
    59   53   55 2   
    60   54   60 1   
    61   54   61 1   
    62   62   63 1   
    63   62   66 1   
    64   63   64 1   
    65   63   67 1   
    66   63   68 1   
    67   64   65 2   
    68   64   69 1   
    69   69   70 1   
    70   69   76 1   
    71   70   71 1   
    72   70   73 1   
    73   70   77 1   
    74   71   72 2   
    75   71   83 1   
    76   73   74 1   
    77   73   75 1   
    78   73   78 1   
    79   74   80 1   
    80   74   81 1   
    81   74   82 1   
    82   75   79 1   
    83   83   84 1   
    84   83   91 1   
    85   84   85 1   
    86   84   87 1   
    87   84   92 1   
    88   85   86 2   
    89   85  102 1   
    90   87   88 1   
    91   87   89 1   
    92   87   93 1   
    93   88   90 1   
    94   88   94 1   
    95   88   95 1   
    96   89   96 1   
    97   89   97 1   
    98   89   98 1   
    99   90   99 1   
   100   90  100 1   
   101   90  101 1   
   102  102  103 1   
   103  102  110 1   
   104  103  104 1   
   105  103  106 1   
   106  103  111 1   
   107  104  105 2   
   108  104  114 1   
   109  106  107 1   
   110  106  112 1   
   111  106  113 1   
   112  107  108 1   
   113  107  109 1   
   114  114  115 1   
   115  114  125 1   
   116  115  116 1   
   117  115  118 1   
   118  115  126 1   
   119  116  117 2   
   120  116  134 1   
   121  118  119 1   
   122  118  127 1   
   123  118  128 1   
   124  119  120 ar  
   125  119  121 ar  
   126  120  122 ar  
   127  120  129 1   
   128  121  123 ar  
   129  121  130 1   
   130  122  124 ar  
   131  122  131 1   
   132  123  124 ar  
   133  123  132 1   
   134  124  133 1   
   135  134  135 1   
   136  134  140 1   
   137  135  136 1   
   138  135  138 1   
   139  135  141 1   
   140  136  137 2   
   141  136  148 1   
   142  138  139 1   
   143  138  142 1   
   144  138  143 1   
   145  139  140 1   
   146  139  144 1   
   147  139  145 1   
   148  140  146 1   
   149  140  147 1   
   150  148  149 1   
   151  148  157 1   
   152  149  150 1   
   153  149  152 1   
   154  149  158 1   
   155  150  151 2   
   156  150  163 1   
   157  152  153 1   
   158  152  159 1   
   159  152  160 1   
   160  153  154 1   
   161  153  161 1   
   162  153  162 1   
   163  154  155 1   
   164  154  156 1   
   165  163  164 1   
   166  163  168 1   
   167  164  165 1   
   168  164  166 1   
   169  164  167 1   
   170  170  171 1   
   171  170  172 1   
   172  173  174 1   
   173  173  175 1   
@<TRIPOS>SUBSTRUCTURE
     1 MOL         1 TEMP              0 ****  ****    0 ROOT
