@<TRIPOS>MOLECULE
MOL
  175   173     1     0     0
SMALL
resp


@<TRIPOS>ATOM
      1 C1          0.4080    4.7660    5.1830 c3        1 MOL     -0.314844
      2 C2         -0.1730    4.6050    3.8020 c         1 MOL      0.758697
      3 O1          0.5360    4.8210    2.8440 o         1 MOL     -0.558000
      4 H1          0.3000    3.8310    5.7330 hc        1 MOL      0.064295
      5 H2          1.4650    5.0230    5.1070 hc        1 MOL      0.064295
      6 H3         -0.1220    5.5600    5.7100 hc        1 MOL      0.064295
      7 N1         -1.4790    4.3800    3.6970 n         1 MOL     -0.629940
      8 C3         -1.9650    3.7710    2.4410 c3        1 MOL      0.204137
      9 C4         -2.2750    4.9130    1.4290 c         1 MOL      0.569209
     10 O2         -2.4220    6.0630    1.9020 o         1 MOL     -0.574520
     11 C5         -3.2670    3.0850    2.8740 c3        1 MOL     -0.509297
     12 C6         -3.9220    2.3690    1.7300 c         1 MOL      0.932674
     13 O3         -5.1590    2.2630    1.8460 o         1 MOL     -0.734950
     14 O4         -3.3450    1.9350    0.7320 o         1 MOL     -0.734950
     15 H4         -2.1290    4.2510    4.4520 hn        1 MOL      0.329183
     16 H5         -1.2970    3.0450    1.9790 h1        1 MOL      0.062800
     17 H6         -3.9900    3.8320    3.2070 hc        1 MOL      0.109573
     18 H7         -3.1300    2.2780    3.5820 hc        1 MOL      0.109573
     19 N2         -2.3910    4.6300    0.1480 n         1 MOL     -0.547841
     20 C7         -2.6560    5.5960   -0.9200 c3        1 MOL      0.373862
     21 C8         -3.7630    5.1210   -1.9010 c         1 MOL      0.330972
     22 O5         -4.0710    5.8750   -2.8740 o         1 MOL     -0.546993
     23 C9         -1.3850    5.9510   -1.6070 c3        1 MOL     -0.226076
     24 H8         -2.2910    3.6580   -0.1210 hn        1 MOL      0.371305
     25 H9         -3.0890    6.4940   -0.4620 h1        1 MOL     -0.007254
     26 H10        -0.9270    6.7700   -1.0470 hc        1 MOL      0.054125
     27 H11        -0.7250    5.0940   -1.4610 hc        1 MOL      0.054125
     28 H12        -1.5510    6.4330   -2.5760 hc        1 MOL      0.054125
     29 N3         -4.3120    3.8780   -1.8390 n         1 MOL     -0.224813
     30 C10        -5.1930    3.3170   -2.8600 c3        1 MOL      0.076570
     31 C11        -6.3790    2.4670   -2.2790 c         1 MOL      0.312910
     32 O6         -7.4400    2.2880   -2.9190 o         1 MOL     -0.549449
     33 C12        -4.3420    2.2790   -3.7120 c3        1 MOL     -0.060856
     34 C13        -3.4390    1.4120   -2.8600 c         1 MOL      0.670831
     35 O7         -2.2520    1.2630   -3.1760 o         1 MOL     -0.702863
     36 O8         -3.8290    0.6560   -1.9440 o         1 MOL     -0.702863
     37 H13        -4.2360    3.3490   -0.9730 hn        1 MOL      0.124736
     38 H14        -5.6290    4.0480   -3.5400 h1        1 MOL      0.067832
     39 H15        -3.6630    2.7300   -4.4260 hc        1 MOL      0.022010
     40 H16        -5.0390    1.7160   -4.3170 hc        1 MOL      0.022010
     41 N4         -6.2220    1.8420   -1.0910 n         1 MOL     -0.046726
     42 C14        -7.2890    1.0510   -0.4930 c3        1 MOL     -0.209126
     43 C15        -7.3440   -0.3830   -0.9300 c         1 MOL      0.519881
     44 O9         -8.2970   -1.0660   -0.5220 o         1 MOL     -0.624797
     45 H17        -5.3560    1.9240   -0.5720 hn        1 MOL      0.074828
     46 H18        -8.2020    1.6330   -0.6450 h1        1 MOL      0.119905
     47 H19        -7.1900    1.1190    0.5930 h1        1 MOL      0.119905
     48 N5         -6.3080   -0.9020   -1.6090 n         1 MOL     -0.289160
     49 C16        -6.1810   -2.2480   -2.2220 c3        1 MOL      0.045361
     50 C17        -6.0240   -3.4260   -1.2490 c         1 MOL      0.317405
     51 O10        -5.5790   -4.4330   -1.7100 o         1 MOL     -0.459376
     52 C18        -5.0050   -2.3020   -3.1440 c3        1 MOL     -0.105863
     53 C19        -3.6220   -2.2410   -2.5150 c         1 MOL      0.617888
     54 N6         -2.5660   -2.3310   -3.3140 n         1 MOL     -0.595196
     55 O11        -3.4800   -2.1510   -1.3240 o         1 MOL     -0.647575
     56 H20        -5.5720   -0.2390   -1.8020 hn        1 MOL      0.226799
     57 H21        -7.0530   -2.4510   -2.8270 h1        1 MOL      0.089060
     58 H22        -5.1680   -1.3880   -3.7220 hc        1 MOL      0.027328
     59 H23        -4.9700   -3.1500   -3.8270 hc        1 MOL      0.027328
     60 H24        -2.6690   -2.2730   -4.3140 hn        1 MOL      0.305325
     61 H25        -1.6110   -2.3670   -2.9740 hn        1 MOL      0.305325
     62 N7         -6.4440   -3.2900   -0.0060 n         1 MOL     -0.148609
     63 C20        -6.5250   -4.3170    1.0680 c3        1 MOL     -0.361875
     64 C21        -5.1900   -4.6110    1.7270 c         1 MOL      0.620467
     65 O12        -5.0900   -5.5530    2.5550 o         1 MOL     -0.608587
     66 H26        -6.8770   -2.3980    0.1770 hn        1 MOL      0.239948
     67 H27        -6.9150   -5.1780    0.5300 h1        1 MOL      0.159164
     68 H28        -7.1820   -3.9320    1.8420 h1        1 MOL      0.159164
     69 N8         -4.0890   -3.9170    1.4730 n         1 MOL     -0.329871
     70 C22        -2.6770   -4.3770    1.8420 c3        1 MOL     -0.092710
     71 C23        -1.6690   -3.3090    1.9040 c         1 MOL      0.558080
     72 O13        -1.7460   -2.3880    1.0700 o         1 MOL     -0.606052
     73 C24        -2.0620   -5.3930    0.9190 c3        1 MOL      0.536529
     74 C25        -2.6450   -6.8340    0.9690 c3        1 MOL     -0.323195
     75 O14        -2.2990   -5.0380   -0.4540 oh        1 MOL     -0.618807
     76 H29        -4.1490   -3.0870    0.9120 hn        1 MOL      0.220040
     77 H30        -2.7160   -4.8420    2.8190 h1        1 MOL      0.068962
     78 H31        -0.9990   -5.4190    1.1370 h1        1 MOL     -0.047493
     79 H32        -2.2390   -4.0880   -0.4200 ho        1 MOL      0.413292
     80 H33        -2.6580   -7.1160    2.0230 hc        1 MOL      0.073019
     81 H34        -3.6500   -6.9420    0.5590 hc        1 MOL      0.073019
     82 H35        -1.9550   -7.5600    0.5430 hc        1 MOL      0.073019
     83 N9         -0.5030   -3.4290    2.5780 n         1 MOL     -0.584152
     84 C26         0.6750   -2.6100    2.2540 c3        1 MOL      0.094295
     85 C27         1.4090   -3.0750    1.0010 c         1 MOL      0.603205
     86 O15         1.5560   -4.2660    0.6430 o         1 MOL     -0.571707
     87 C28         1.6410   -2.5980    3.5040 c3        1 MOL     -0.053674
     88 C29         0.9980   -1.7180    4.6170 c3        1 MOL      0.129082
     89 C30         3.0980   -2.0910    3.1700 c3        1 MOL     -0.098116
     90 C31         1.6330   -1.8460    6.0180 c3        1 MOL     -0.237612
     91 H36        -0.3710   -4.1380    3.2810 hn        1 MOL      0.294889
     92 H37         0.4090   -1.5540    2.1800 h1        1 MOL      0.055272
     93 H38         1.7090   -3.6170    3.8890 hc        1 MOL      0.023524
     94 H39        -0.0900   -1.7980    4.7230 hc        1 MOL     -0.004882
     95 H40         1.0160   -0.6860    4.2790 hc        1 MOL     -0.004882
     96 H41         3.5010   -2.5580    2.2740 hc        1 MOL      0.018414
     97 H42         3.0880   -1.0230    2.9300 hc        1 MOL      0.018414
     98 H43         3.7390   -2.3300    4.0240 hc        1 MOL      0.018414
     99 H44         2.5720   -1.2880    5.9910 hc        1 MOL      0.053963
    100 H45         0.8730   -1.4470    6.6790 hc        1 MOL      0.053963
    101 H46         1.7870   -2.8720    6.3540 hc        1 MOL      0.053963
    102 N10         1.7870   -2.0080    0.2900 n         1 MOL     -0.463552
    103 C32         2.6470   -1.9880   -0.9650 c3        1 MOL      0.185266
    104 C33         4.0800   -1.6200   -0.6900 c         1 MOL      0.466022
    105 O16         4.3890   -0.9030    0.2650 o         1 MOL     -0.268283
    106 C34         2.0060   -1.2520   -2.0680 c3        1 MOL     -0.215769
    107 C35         0.5690   -1.7380   -2.3720 c         1 MOL      0.680225
    108 O17        -0.3840   -1.2970   -1.5980 o         1 MOL     -0.647771
    109 O18         0.3670   -2.4650   -3.3850 o         1 MOL     -0.647771
    110 H47         1.6130   -1.1090    0.7110 hn        1 MOL      0.233393
    111 H48         2.6360   -3.0260   -1.3070 h1        1 MOL      0.050180
    112 H49         2.6420   -1.4160   -2.9300 hc        1 MOL      0.050157
    113 H50         2.0080   -0.1900   -1.8190 hc        1 MOL      0.050157
    114 N11         5.0830   -1.9880   -1.5470 n         1 MOL     -0.767666
    115 C36         6.5240   -1.6290   -1.3570 c3        1 MOL      0.472956
    116 C37         6.8670   -0.1440   -1.0950 c         1 MOL      0.258025
    117 O19         7.5570    0.1530   -0.1530 o         1 MOL     -0.453875
    118 C38         7.4280   -2.3920   -2.3860 c3        1 MOL     -0.236503
    119 C39         8.8590   -2.1590   -2.1120 ca        1 MOL      0.137069
    120 C40         9.6360   -1.2570   -2.8120 ca        1 MOL     -0.202316
    121 C41         9.4390   -2.7530   -1.0290 ca        1 MOL     -0.202316
    122 C42        11.0490   -1.0140   -2.5250 ca        1 MOL     -0.087668
    123 C43        10.7380   -2.4430   -0.5740 ca        1 MOL     -0.087668
    124 C44        11.6020   -1.6120   -1.3350 ca        1 MOL     -0.146242
    125 H51         4.8500   -2.4220   -2.4310 hn        1 MOL      0.346810
    126 H52         6.8680   -2.1170   -0.4390 h1        1 MOL      0.020157
    127 H53         7.0910   -2.1340   -3.3920 hc        1 MOL      0.074591
    128 H54         7.2900   -3.4690   -2.2720 hc        1 MOL      0.074591
    129 H55         9.1540   -0.7060   -3.6040 ha        1 MOL      0.116375
    130 H56         8.7990   -3.3460   -0.3870 ha        1 MOL      0.116375
    131 H57        11.6320   -0.4000   -3.2020 ha        1 MOL      0.109784
    132 H58        11.1560   -2.7860    0.3580 ha        1 MOL      0.109784
    133 H59        12.6040   -1.4480   -0.9620 ha        1 MOL      0.120364
    134 N12         6.4270    0.8380   -1.8860 n         1 MOL     -0.073883
    135 C45         6.7000    2.2530   -1.6560 c3        1 MOL     -0.001763
    136 C46         6.0690    2.7450   -0.3770 c         1 MOL      0.330238
    137 O20         6.5070    3.6590    0.2780 o         1 MOL     -0.492139
    138 C47         6.0440    2.9350   -2.8630 c3        1 MOL      0.084962
    139 C48         5.7930    1.9120   -3.9320 c3        1 MOL     -0.193887
    140 C49         5.6760    0.6340   -3.1720 c3        1 MOL      0.033745
    141 H60         7.7780    2.4460   -1.6750 h1        1 MOL      0.064454
    142 H61         5.1130    3.4290   -2.5650 hc        1 MOL      0.015698
    143 H62         6.6880    3.7410   -3.2100 hc        1 MOL      0.015698
    144 H63         4.8670    2.0660   -4.4760 hc        1 MOL      0.064349
    145 H64         6.6260    1.7440   -4.6190 hc        1 MOL      0.064349
    146 H65         4.6340    0.4500   -2.9140 h1        1 MOL      0.025281
    147 H66         6.0210   -0.2840   -3.6430 h1        1 MOL      0.025281
    148 N13         4.9060    2.1770    0.0210 n         1 MOL     -0.195931
    149 C50         4.3070    2.5130    1.3490 c3        1 MOL     -0.071643
    150 C51         5.0270    1.8680    2.5330 c         1 MOL      0.449594
    151 O21         5.2040    2.4590    3.5870 o         1 MOL     -0.563535
    152 C52         2.8620    2.0650    1.4110 c3        1 MOL      0.049981
    153 C53         1.8470    2.4440    0.3210 c3        1 MOL     -0.088368
    154 C54         0.4850    1.6990    0.3810 c         1 MOL      0.670416
    155 O22        -0.5140    2.0780   -0.2280 o         1 MOL     -0.739893
    156 O23         0.4120    0.6550    1.0380 o         1 MOL     -0.739893
    157 H67         4.4880    1.4560   -0.5510 hn        1 MOL      0.202707
    158 H68         4.2880    3.5760    1.5630 h1        1 MOL      0.114164
    159 H69         2.4560    2.4170    2.3620 hc        1 MOL      0.006304
    160 H70         2.8550    0.9810    1.4680 hc        1 MOL      0.006304
    161 H71         2.3850    2.2410   -0.6030 hc        1 MOL      0.023930
    162 H72         1.7730    3.5300    0.4200 hc        1 MOL      0.023930
    163 N14         5.5750    0.6530    2.3420 n         1 MOL     -0.001445
    164 C55         6.4760    0.0260    3.3600 c3        1 MOL     -0.193541
    165 H73         6.0270   -0.9000    3.7210 h1        1 MOL      0.076677
    166 H74         7.4430   -0.1920    2.9060 h1        1 MOL      0.076677
    167 H75         6.6130    0.7130    4.1960 h1        1 MOL      0.076677
    168 H76         5.3470    0.1850    1.4740 hn        1 MOL     -0.023732
    169 Ca1        -2.0790   -0.1130   -0.1800 Ca        1 MOL      1.755184
    170 O24        -4.6080   -0.8290    1.6540 oh        1 MOL     -0.746953
    171 H77        -5.1910   -1.1800    2.3260 ho        1 MOL      0.363763
    172 H78        -4.6320    0.1130    1.7810 ho        1 MOL      0.363763
    173 O25        -1.8180    0.1160    2.4480 oh        1 MOL     -0.746953
    174 H79        -1.9580   -0.1320    3.3670 ho        1 MOL      0.363763
    175 H80        -0.8790   -0.0080    2.3030 ho        1 MOL      0.363763
@<TRIPOS>BOND
     1    1    2 1   
     2    1    4 1   
     3    1    5 1   
     4    1    6 1   
     5    2    3 2   
     6    2    7 1   
     7    7    8 1   
     8    7   15 1   
     9    8    9 1   
    10    8   11 1   
    11    8   16 1   
    12    9   10 2   
    13    9   19 1   
    14   11   12 1   
    15   11   17 1   
    16   11   18 1   
    17   12   13 1   
    18   12   14 1   
    19   19   20 1   
    20   19   24 1   
    21   20   21 1   
    22   20   23 1   
    23   20   25 1   
    24   21   22 2   
    25   21   29 1   
    26   23   26 1   
    27   23   27 1   
    28   23   28 1   
    29   29   30 1   
    30   29   37 1   
    31   30   31 1   
    32   30   33 1   
    33   30   38 1   
    34   31   32 2   
    35   31   41 1   
    36   33   34 1   
    37   33   39 1   
    38   33   40 1   
    39   34   35 1   
    40   34   36 1   
    41   41   42 1   
    42   41   45 1   
    43   42   43 1   
    44   42   46 1   
    45   42   47 1   
    46   43   44 2   
    47   43   48 1   
    48   48   49 1   
    49   48   56 1   
    50   49   50 1   
    51   49   52 1   
    52   49   57 1   
    53   50   51 2   
    54   50   62 1   
    55   52   53 1   
    56   52   58 1   
    57   52   59 1   
    58   53   54 1   
    59   53   55 2   
    60   54   60 1   
    61   54   61 1   
    62   62   63 1   
    63   62   66 1   
    64   63   64 1   
    65   63   67 1   
    66   63   68 1   
    67   64   65 2   
    68   64   69 1   
    69   69   70 1   
    70   69   76 1   
    71   70   71 1   
    72   70   73 1   
    73   70   77 1   
    74   71   72 2   
    75   71   83 1   
    76   73   74 1   
    77   73   75 1   
    78   73   78 1   
    79   74   80 1   
    80   74   81 1   
    81   74   82 1   
    82   75   79 1   
    83   83   84 1   
    84   83   91 1   
    85   84   85 1   
    86   84   87 1   
    87   84   92 1   
    88   85   86 2   
    89   85  102 1   
    90   87   88 1   
    91   87   89 1   
    92   87   93 1   
    93   88   90 1   
    94   88   94 1   
    95   88   95 1   
    96   89   96 1   
    97   89   97 1   
    98   89   98 1   
    99   90   99 1   
   100   90  100 1   
   101   90  101 1   
   102  102  103 1   
   103  102  110 1   
   104  103  104 1   
   105  103  106 1   
   106  103  111 1   
   107  104  105 2   
   108  104  114 1   
   109  106  107 1   
   110  106  112 1   
   111  106  113 1   
   112  107  108 1   
   113  107  109 1   
   114  114  115 1   
   115  114  125 1   
   116  115  116 1   
   117  115  118 1   
   118  115  126 1   
   119  116  117 2   
   120  116  134 1   
   121  118  119 1   
   122  118  127 1   
   123  118  128 1   
   124  119  120 ar  
   125  119  121 ar  
   126  120  122 ar  
   127  120  129 1   
   128  121  123 ar  
   129  121  130 1   
   130  122  124 ar  
   131  122  131 1   
   132  123  124 ar  
   133  123  132 1   
   134  124  133 1   
   135  134  135 1   
   136  134  140 1   
   137  135  136 1   
   138  135  138 1   
   139  135  141 1   
   140  136  137 2   
   141  136  148 1   
   142  138  139 1   
   143  138  142 1   
   144  138  143 1   
   145  139  140 1   
   146  139  144 1   
   147  139  145 1   
   148  140  146 1   
   149  140  147 1   
   150  148  149 1   
   151  148  157 1   
   152  149  150 1   
   153  149  152 1   
   154  149  158 1   
   155  150  151 2   
   156  150  163 1   
   157  152  153 1   
   158  152  159 1   
   159  152  160 1   
   160  153  154 1   
   161  153  161 1   
   162  153  162 1   
   163  154  155 1   
   164  154  156 1   
   165  163  164 1   
   166  163  168 1   
   167  164  165 1   
   168  164  166 1   
   169  164  167 1   
   170  170  171 1   
   171  170  172 1   
   172  173  174 1   
   173  173  175 1   
@<TRIPOS>SUBSTRUCTURE
     1 MOL         1 TEMP              0 ****  ****    0 ROOT
