@<TRIPOS>MOLECULE
MOL
  182   178     1     0     0
SMALL
resp


@<TRIPOS>ATOM
      1 C1          2.9230    2.0600    4.8570 c3        1 MOL     -0.272657
      2 C2          2.2370    1.8770    3.4770 c         1 MOL      0.710763
      3 O1          2.8690    1.8720    2.4690 o         1 MOL     -0.564258
      4 H1          2.7660    1.1670    5.4620 hc        1 MOL      0.063249
      5 H2          3.9930    2.2180    4.7140 hc        1 MOL      0.063249
      6 H3          2.4930    2.9240    5.3660 hc        1 MOL      0.063249
      7 N1          0.9230    1.9320    3.4560 n         1 MOL     -0.492909
      8 C3          0.1480    2.0040    2.2150 c3        1 MOL      0.151547
      9 C4          0.2000    3.4740    1.6450 c         1 MOL      0.313668
     10 O2         -0.3010    4.4440    2.2230 o         1 MOL     -0.510501
     11 C5         -1.2610    1.5180    2.5390 c3        1 MOL     -0.271797
     12 C6         -2.2820    1.6920    1.4300 c         1 MOL      0.800848
     13 O3         -3.4570    1.6850    1.7250 o         1 MOL     -0.730952
     14 O4         -1.8910    1.7450    0.2800 o         1 MOL     -0.730952
     15 H4          0.5270    1.8030    4.3790 hn        1 MOL      0.283037
     16 H5          0.5760    1.2920    1.5100 h1        1 MOL     -0.018731
     17 H6         -1.5520    2.0930    3.4170 hc        1 MOL      0.072995
     18 H7         -1.2600    0.4470    2.7280 hc        1 MOL      0.072995
     19 N2          0.8930    3.6430    0.4920 n         1 MOL     -0.155771
     20 C7          1.1380    4.9870   -0.1230 c3        1 MOL      0.055803
     21 C8          0.0960    5.4930   -1.0210 c         1 MOL      0.390112
     22 O5          0.1560    6.7400   -1.0850 o         1 MOL     -0.557773
     23 C9          2.4830    5.0430   -0.7620 c3        1 MOL     -0.058121
     24 C10         3.7750    4.6760    0.0750 c3        1 MOL     -0.122245
     25 C11         3.9560    5.4660    1.3340 c3        1 MOL     -0.044913
     26 C12         5.2230    5.1180    2.0770 c3        1 MOL      0.086719
     27 N3          5.4650    5.9850    3.2100 n4        1 MOL     -0.360688
     28 H8          1.4130    2.8850    0.0780 hn        1 MOL      0.262543
     29 H9          1.1360    5.7550    0.6580 h1        1 MOL      0.059926
     30 H10         2.6280    6.0900   -1.0300 hc        1 MOL      0.044017
     31 H11         2.3910    4.4970   -1.6980 hc        1 MOL      0.044017
     32 H12         4.6220    4.9120   -0.5730 hc        1 MOL      0.053301
     33 H13         3.7480    3.6090    0.3000 hc        1 MOL      0.053301
     34 H14         3.0900    5.3530    1.9890 hc        1 MOL      0.041895
     35 H15         3.8960    6.5260    1.0920 hc        1 MOL      0.041895
     36 H16         6.1150    5.1480    1.4470 hx        1 MOL      0.086716
     37 H17         4.9800    4.1320    2.4850 hx        1 MOL      0.086716
     38 H18         5.0580    6.9110    3.1500 hn        1 MOL      0.321239
     39 H19         5.1070    5.5010    4.0220 hn        1 MOL      0.321239
     40 H20         6.4610    6.0890    3.3530 hn        1 MOL      0.321239
     41 N4         -0.7050    4.6970   -1.7090 n         1 MOL     -0.261320
     42 C13        -1.9600    5.1080   -2.4160 c3        1 MOL      0.109125
     43 C14        -3.2310    4.8600   -1.6420 c         1 MOL      0.440255
     44 O6         -4.2410    5.4020   -2.0570 o         1 MOL     -0.528264
     45 C15        -1.9980    4.3940   -3.7610 c3        1 MOL     -0.331419
     46 C16        -2.3580    2.9150   -3.7150 c         1 MOL      0.856371
     47 O7         -2.8790    2.3510   -4.6760 o         1 MOL     -0.737063
     48 O8         -2.1280    2.2630   -2.6960 o         1 MOL     -0.737063
     49 H21        -0.4810    3.7250   -1.6030 hn        1 MOL      0.165378
     50 H22        -1.8750    6.1940   -2.4250 h1        1 MOL      0.085670
     51 H23        -1.0300    4.6680   -4.1940 hc        1 MOL      0.083437
     52 H24        -2.6730    4.9510   -4.4110 hc        1 MOL      0.083437
     53 N5         -3.1860    4.1950   -0.4800 n         1 MOL     -0.076388
     54 C17        -4.1840    4.4220    0.5100 c3        1 MOL     -0.390440
     55 C18        -5.4590    3.5750    0.3620 c         1 MOL      0.579600
     56 O9         -6.5490    3.9910    0.7680 o         1 MOL     -0.574084
     57 H25        -2.4500    3.5260   -0.2920 hn        1 MOL      0.184140
     58 H26        -4.5460    5.4500    0.4650 h1        1 MOL      0.157049
     59 H27        -3.8390    4.1260    1.5060 h1        1 MOL      0.157049
     60 N6         -5.3970    2.4810   -0.3960 n         1 MOL     -0.161762
     61 C19        -6.4440    1.4810   -0.6790 c3        1 MOL     -0.240250
     62 C20        -6.6950    0.4380    0.4140 c         1 MOL      0.278689
     63 O10        -7.5880   -0.3770    0.2960 o         1 MOL     -0.385591
     64 C21        -6.1840    0.7330   -2.0120 c3        1 MOL     -0.080831
     65 C22        -5.1360   -0.3950   -1.9770 c         1 MOL      0.474513
     66 N7         -5.4880   -1.5200   -2.6090 n         1 MOL     -0.822658
     67 O11        -4.1050   -0.3310   -1.2670 o         1 MOL     -0.590141
     68 H28        -4.5090    2.3780   -0.8570 hn        1 MOL      0.158336
     69 H29        -7.3580    2.0370   -0.9030 h1        1 MOL      0.169181
     70 H30        -5.8670    1.4440   -2.7770 hc        1 MOL      0.091457
     71 H31        -7.1070    0.3200   -2.4230 hc        1 MOL      0.091457
     72 H32        -6.3910   -1.5840   -3.0710 hn        1 MOL      0.406775
     73 H33        -4.9180   -2.3420   -2.4690 hn        1 MOL      0.406775
     74 N8         -5.9170    0.4770    1.5360 n         1 MOL     -0.015135
     75 C23        -6.0510   -0.4910    2.6550 c3        1 MOL     -0.522110
     76 C24        -5.2200   -1.7150    2.4950 c         1 MOL      0.754689
     77 O12        -5.5350   -2.7300    3.1730 o         1 MOL     -0.555359
     78 H34        -5.2110    1.1900    1.5970 hn        1 MOL      0.227736
     79 H35        -7.0410   -0.9100    2.8180 h1        1 MOL      0.189427
     80 H36        -5.6220    0.0390    3.4990 h1        1 MOL      0.189427
     81 N9         -4.1850   -1.7450    1.6340 n         1 MOL     -0.728470
     82 C25        -3.3680   -2.8910    1.5060 c3        1 MOL      0.304364
     83 C26        -1.9220   -2.4630    1.2650 c         1 MOL      0.630430
     84 O13        -1.6760   -1.4810    0.5740 o         1 MOL     -0.681032
     85 C27        -3.8910   -3.7920    0.4330 c3        1 MOL      0.183368
     86 C28        -5.3710   -4.2530    0.3480 ca        1 MOL      0.159419
     87 C29        -6.5250   -3.4010    0.1440 ca        1 MOL     -0.352409
     88 C30        -5.5460   -5.6500    0.3570 ca        1 MOL     -0.352409
     89 C31        -7.7990   -4.0150    0.0900 ca        1 MOL      0.021859
     90 C32        -6.8050   -6.2320    0.1810 ca        1 MOL      0.021859
     91 C33        -7.9480   -5.4420    0.0450 ca        1 MOL      0.056079
     92 O14        -9.1780   -5.9200    0.0750 oh        1 MOL     -0.381870
     93 H37        -3.9610   -0.9160    1.1100 hn        1 MOL      0.474133
     94 H38        -3.4870   -3.4940    2.4060 h1        1 MOL     -0.047205
     95 H39        -3.2250   -4.6590    0.3770 hc        1 MOL     -0.082083
     96 H40        -3.7920   -3.1440   -0.4290 hc        1 MOL     -0.082083
     97 H41        -6.2800   -2.3540    0.0920 ha        1 MOL      0.133974
     98 H42        -4.6810   -6.2470    0.5670 ha        1 MOL      0.133974
     99 H43        -8.7050   -3.4370    0.0150 ha        1 MOL      0.071962
    100 H44        -6.8800   -7.3000    0.0840 ha        1 MOL      0.071962
    101 H45        -9.2250   -6.8140   -0.2820 ho        1 MOL      0.334331
    102 N10        -0.8830   -3.2100    1.7600 n         1 MOL     -0.548531
    103 C34         0.5100   -2.8150    1.7430 c3        1 MOL      0.099109
    104 C35         1.2990   -3.7890    0.8360 c         1 MOL      0.477767
    105 O15         0.9900   -5.0030    0.8130 o         1 MOL     -0.564702
    106 C36         1.0600   -2.7280    3.1250 c3        1 MOL     -0.002583
    107 C37         0.2520   -1.7200    4.0490 c3        1 MOL      0.372042
    108 C38         2.5480   -2.2960    3.1060 c3        1 MOL     -0.287280
    109 C39         0.1940   -1.8590    5.5170 c3        1 MOL     -0.376250
    110 H46        -1.1600   -3.9920    2.3340 hn        1 MOL      0.285837
    111 H47         0.6150   -1.7840    1.4050 h1        1 MOL      0.118590
    112 H48         0.9640   -3.7010    3.6180 hc        1 MOL      0.018923
    113 H49        -0.8100   -1.6700    3.8020 hc        1 MOL     -0.079786
    114 H50         0.6940   -0.7540    3.7940 hc        1 MOL     -0.079786
    115 H51         2.6430   -1.2660    2.7580 hc        1 MOL      0.059602
    116 H52         2.9840   -2.3580    4.1020 hc        1 MOL      0.059602
    117 H53         3.1890   -2.9330    2.5000 hc        1 MOL      0.059602
    118 H54        -0.3850   -1.0150    5.8890 hc        1 MOL      0.080533
    119 H55        -0.3660   -2.7950    5.6490 hc        1 MOL      0.080533
    120 H56         1.1990   -1.9420    5.9040 hc        1 MOL      0.080533
    121 N11         2.2950   -3.3000    0.1050 n         1 MOL     -0.143516
    122 C40         3.0730   -4.1020   -0.7720 c3        1 MOL     -0.046335
    123 C41         4.6250   -3.8890   -0.5400 c         1 MOL      0.402360
    124 O16         4.9740   -3.0810    0.2910 o         1 MOL     -0.368418
    125 C42         2.7600   -3.7600   -2.1950 c3        1 MOL     -0.078242
    126 O17         3.0870   -2.3870   -2.5000 oh        1 MOL     -0.538490
    127 H57         2.3420   -2.3020    0.0650 hn        1 MOL      0.278555
    128 H58         2.8200   -5.1550   -0.6540 h1        1 MOL      0.077403
    129 H59         1.6860   -3.8450   -2.4100 h1        1 MOL      0.087846
    130 H60         3.3760   -4.4100   -2.8050 h1        1 MOL      0.087846
    131 H61         2.5310   -1.8460   -1.9250 ho        1 MOL      0.382053
    132 N12         5.4860   -4.7260   -1.1460 n         1 MOL     -0.449634
    133 C43         6.9190   -4.7540   -0.8700 c3        1 MOL      0.246777
    134 C44         7.5420   -3.3410   -1.1030 c         1 MOL      0.369968
    135 O18         8.2960   -2.8650   -0.2810 o         1 MOL     -0.506019
    136 C45         7.5780   -5.7380   -1.8270 c3        1 MOL     -0.341288
    137 H62         5.1390   -5.3610   -1.8540 hn        1 MOL      0.289065
    138 H63         7.1470   -4.9830    0.1680 h1        1 MOL      0.063609
    139 H64         8.6450   -5.6030   -1.9840 hc        1 MOL      0.096789
    140 H65         7.3610   -6.7440   -1.4830 hc        1 MOL      0.096789
    141 H66         7.2370   -5.5410   -2.8460 hc        1 MOL      0.096789
    142 N13         7.3880   -2.6900   -2.2800 n         1 MOL     -0.242251
    143 C46         7.9270   -1.4130   -2.6070 c3        1 MOL      0.068272
    144 C47         7.3450   -0.2840   -1.7020 c         1 MOL      0.351010
    145 O19         8.0630    0.7140   -1.4700 o         1 MOL     -0.516706
    146 C48         7.5400   -1.1730   -4.0770 c3        1 MOL     -0.257455
    147 H67         7.0240   -3.2680   -3.0190 hn        1 MOL      0.226241
    148 H68         9.0090   -1.4030   -2.5250 h1        1 MOL      0.091037
    149 H69         7.9780   -1.9680   -4.6940 hc        1 MOL      0.077560
    150 H70         6.4730   -1.1220   -4.2800 hc        1 MOL      0.077560
    151 H71         7.9800   -0.2230   -4.3590 hc        1 MOL      0.077560
    152 N14         6.1260   -0.4010   -1.1720 n         1 MOL     -0.070253
    153 C49         5.5260    0.5690   -0.2400 c3        1 MOL     -0.031300
    154 C50         6.1950    0.4720    1.1100 c         1 MOL      0.507809
    155 O20         6.4820    1.5050    1.7270 o         1 MOL     -0.606945
    156 C51         4.0650    0.2010   -0.0900 c3        1 MOL      0.105050
    157 C52         3.1750    0.7890   -1.1400 c3        1 MOL     -0.067254
    158 C53         1.6940    0.3900   -0.9820 c         1 MOL      0.965087
    159 O21         0.8250    1.2660   -1.1530 o         1 MOL     -0.828491
    160 O22         1.3650   -0.8180   -0.8320 o         1 MOL     -0.828491
    161 H72         5.6420   -1.1800   -1.5760 hn        1 MOL      0.089394
    162 H73         5.6300    1.5840   -0.6040 h1        1 MOL      0.056140
    163 H74         3.7770    0.5050    0.9120 hc        1 MOL     -0.101924
    164 H75         3.9340   -0.8780   -0.1260 hc        1 MOL     -0.101924
    165 H76         3.4610    0.4280   -2.1310 hc        1 MOL     -0.010047
    166 H77         3.2130    1.8800   -1.1630 hc        1 MOL     -0.010047
    167 N15         6.5970   -0.7390    1.4980 n         1 MOL     -0.067726
    168 C54         7.4880   -0.8410    2.5910 c3        1 MOL     -0.254823
    169 H78         7.4430   -1.8490    3.0040 h1        1 MOL      0.098112
    170 H79         8.5040   -0.6330    2.2530 h1        1 MOL      0.098112
    171 H80         7.2060   -0.1210    3.3590 h1        1 MOL      0.098112
    172 H81         6.2030   -1.5270    1.0100 hn        1 MOL      0.122326
    173 Ca1        -1.4820    0.0300   -1.5920 Ca        1 MOL      1.808344
    174 O23        -2.8990   -0.3610   -4.3690 oh        1 MOL     -0.846405
    175 H82        -2.9490    0.5850   -4.4640 ho        1 MOL      0.410867
    176 H83        -3.6640   -0.6950   -4.8330 ho        1 MOL      0.410867
    177 O24        -2.1050   -2.5830   -2.4060 oh        1 MOL     -0.846405
    178 H84        -2.1470   -3.5200   -2.1970 ho        1 MOL      0.410867
    179 H85        -2.4310   -2.5240   -3.3020 ho        1 MOL      0.410867
    180 O25         0.2590   -0.5320   -3.7680 oh        1 MOL     -0.846405
    181 H86         0.1590   -1.4530   -4.0070 ho        1 MOL      0.410867
    182 H87         0.6280   -0.1100   -4.5420 ho        1 MOL      0.410867
@<TRIPOS>BOND
     1    1    2 1   
     2    1    4 1   
     3    1    5 1   
     4    1    6 1   
     5    2    3 2   
     6    2    7 1   
     7    7    8 1   
     8    7   15 1   
     9    8    9 1   
    10    8   11 1   
    11    8   16 1   
    12    9   10 2   
    13    9   19 1   
    14   11   12 1   
    15   11   17 1   
    16   11   18 1   
    17   12   13 1   
    18   12   14 1   
    19   19   20 1   
    20   19   28 1   
    21   20   21 1   
    22   20   23 1   
    23   20   29 1   
    24   21   22 2   
    25   21   41 1   
    26   23   24 1   
    27   23   30 1   
    28   23   31 1   
    29   24   25 1   
    30   24   32 1   
    31   24   33 1   
    32   25   26 1   
    33   25   34 1   
    34   25   35 1   
    35   26   27 1   
    36   26   36 1   
    37   26   37 1   
    38   27   38 1   
    39   27   39 1   
    40   27   40 1   
    41   41   42 1   
    42   41   49 1   
    43   42   43 1   
    44   42   45 1   
    45   42   50 1   
    46   43   44 2   
    47   43   53 1   
    48   45   46 1   
    49   45   51 1   
    50   45   52 1   
    51   46   47 1   
    52   46   48 1   
    53   53   54 1   
    54   53   57 1   
    55   54   55 1   
    56   54   58 1   
    57   54   59 1   
    58   55   56 2   
    59   55   60 1   
    60   60   61 1   
    61   60   68 1   
    62   61   62 1   
    63   61   64 1   
    64   61   69 1   
    65   62   63 2   
    66   62   74 1   
    67   64   65 1   
    68   64   70 1   
    69   64   71 1   
    70   65   66 1   
    71   65   67 2   
    72   66   72 1   
    73   66   73 1   
    74   74   75 1   
    75   74   78 1   
    76   75   76 1   
    77   75   79 1   
    78   75   80 1   
    79   76   77 2   
    80   76   81 1   
    81   81   82 1   
    82   81   93 1   
    83   82   83 1   
    84   82   85 1   
    85   82   94 1   
    86   83   84 2   
    87   83  102 1   
    88   85   86 1   
    89   85   95 1   
    90   85   96 1   
    91   86   87 ar  
    92   86   88 ar  
    93   87   89 ar  
    94   87   97 1   
    95   88   90 ar  
    96   88   98 1   
    97   89   91 ar  
    98   89   99 1   
    99   90   91 ar  
   100   90  100 1   
   101   91   92 1   
   102   92  101 1   
   103  102  103 1   
   104  102  110 1   
   105  103  104 1   
   106  103  106 1   
   107  103  111 1   
   108  104  105 2   
   109  104  121 1   
   110  106  107 1   
   111  106  108 1   
   112  106  112 1   
   113  107  109 1   
   114  107  113 1   
   115  107  114 1   
   116  108  115 1   
   117  108  116 1   
   118  108  117 1   
   119  109  118 1   
   120  109  119 1   
   121  109  120 1   
   122  121  122 1   
   123  121  127 1   
   124  122  123 1   
   125  122  125 1   
   126  122  128 1   
   127  123  124 2   
   128  123  132 1   
   129  125  126 1   
   130  125  129 1   
   131  125  130 1   
   132  126  131 1   
   133  132  133 1   
   134  132  137 1   
   135  133  134 1   
   136  133  136 1   
   137  133  138 1   
   138  134  135 2   
   139  134  142 1   
   140  136  139 1   
   141  136  140 1   
   142  136  141 1   
   143  142  143 1   
   144  142  147 1   
   145  143  144 1   
   146  143  146 1   
   147  143  148 1   
   148  144  145 2   
   149  144  152 1   
   150  146  149 1   
   151  146  150 1   
   152  146  151 1   
   153  152  153 1   
   154  152  161 1   
   155  153  154 1   
   156  153  156 1   
   157  153  162 1   
   158  154  155 2   
   159  154  167 1   
   160  156  157 1   
   161  156  163 1   
   162  156  164 1   
   163  157  158 1   
   164  157  165 1   
   165  157  166 1   
   166  158  159 1   
   167  158  160 1   
   168  167  168 1   
   169  167  172 1   
   170  168  169 1   
   171  168  170 1   
   172  168  171 1   
   173  174  175 1   
   174  174  176 1   
   175  177  178 1   
   176  177  179 1   
   177  180  181 1   
   178  180  182 1   
@<TRIPOS>SUBSTRUCTURE
     1 MOL         1 TEMP              0 ****  ****    0 ROOT
