@<TRIPOS>MOLECULE
MOL
  189   185     1     0     0
SMALL
resp


@<TRIPOS>ATOM
      1 C1          0.3800   -4.3660    5.6380 c3        1 MOL     -0.405017
      2 C2          0.7070   -3.6880    4.3330 c         1 MOL      0.819300
      3 O1          0.6000   -2.5190    4.2020 o         1 MOL     -0.631657
      4 H1          1.1990   -5.0280    5.9190 hc        1 MOL      0.094920
      5 H2          0.2420   -3.6130    6.4150 hc        1 MOL      0.094920
      6 H3         -0.5350   -4.9470    5.5280 hc        1 MOL      0.094920
      7 N1          1.2570   -4.4300    3.4090 n         1 MOL     -0.635170
      8 C3          1.9340   -4.0620    2.1810 c3        1 MOL      0.247972
      9 C4          1.9000   -5.1130    1.0630 c         1 MOL      0.363911
     10 O2          2.5800   -6.1510    1.2240 o         1 MOL     -0.527878
     11 C5          3.3760   -3.7230    2.6020 c3        1 MOL     -0.249237
     12 C6          4.3190   -3.1820    1.5140 c         1 MOL      0.857423
     13 O3          5.5240   -3.1620    1.7390 o         1 MOL     -0.720326
     14 O4          3.7350   -2.7430    0.5390 o         1 MOL     -0.720326
     15 H4          1.2500   -5.4220    3.6140 hn        1 MOL      0.302938
     16 H5          1.5970   -3.0580    1.9220 h1        1 MOL      0.079657
     17 H6          3.7270   -4.6420    3.0560 hc        1 MOL      0.013935
     18 H7          3.4460   -2.8850    3.2970 hc        1 MOL      0.013935
     19 N2          1.3880   -4.7470   -0.1410 n         1 MOL     -0.189149
     20 C7          1.2880   -5.6380   -1.3190 c3        1 MOL     -0.108104
     21 C8          2.2170   -5.2720   -2.5500 c         1 MOL      0.542959
     22 O5          2.2850   -5.9180   -3.5570 o         1 MOL     -0.567814
     23 C9         -0.1110   -5.9170   -1.8660 c3        1 MOL      0.194368
     24 C10        -0.8600   -4.6850   -2.1840 c3        1 MOL      0.266876
     25 C11        -0.8690   -6.6760   -0.7370 c3        1 MOL     -0.282173
     26 C12        -2.2010   -4.8860   -2.9220 c3        1 MOL     -0.327635
     27 H8          1.0660   -3.7850   -0.2170 hn        1 MOL      0.115246
     28 H9          1.7130   -6.6120   -1.0680 h1        1 MOL      0.073853
     29 H10        -0.1070   -6.5160   -2.7780 hc        1 MOL     -0.040917
     30 H11        -0.2480   -4.0470   -2.8190 hc        1 MOL     -0.033404
     31 H12        -0.9600   -4.0290   -1.3130 hc        1 MOL     -0.033404
     32 H13        -1.7770   -7.1680   -1.0880 hc        1 MOL      0.052402
     33 H14        -0.2170   -7.4930   -0.4390 hc        1 MOL      0.052402
     34 H15        -1.1670   -6.0260    0.0840 hc        1 MOL      0.052402
     35 H16        -2.6680   -3.9270   -3.1480 hc        1 MOL      0.064893
     36 H17        -1.8850   -5.3260   -3.8610 hc        1 MOL      0.064893
     37 H18        -2.8740   -5.4800   -2.3100 hc        1 MOL      0.064893
     38 N3          2.9110   -4.1400   -2.3760 n         1 MOL     -0.526515
     39 C13         3.6310   -3.5260   -3.4590 c3        1 MOL      0.141433
     40 C14         5.0380   -3.0190   -3.1300 c         1 MOL      0.400057
     41 O6          5.8070   -2.8070   -4.0350 o         1 MOL     -0.556714
     42 C15         2.7740   -2.4700   -4.0170 c3        1 MOL     -0.169269
     43 C16         2.3960   -1.2600   -3.1600 c         1 MOL      0.769804
     44 O7          2.8390   -1.0440   -2.0490 o         1 MOL     -0.746500
     45 O8          1.5330   -0.4530   -3.5470 o         1 MOL     -0.746500
     46 H19         2.9020   -3.6620   -1.4870 hn        1 MOL      0.368963
     47 H20         3.7690   -4.2590   -4.2480 h1        1 MOL      0.072336
     48 H21         1.8640   -2.9500   -4.3600 hc        1 MOL      0.034499
     49 H22         3.3150   -2.0880   -4.8840 hc        1 MOL      0.034499
     50 N4          5.3500   -2.8670   -1.8600 n         1 MOL     -0.141351
     51 C17         6.7510   -2.5820   -1.4880 c3        1 MOL     -0.210004
     52 C18         7.1140   -1.0880   -1.7160 c         1 MOL      0.520369
     53 O9          8.2720   -0.7890   -1.8650 o         1 MOL     -0.629905
     54 H23         4.6480   -2.9620   -1.1390 hn        1 MOL      0.100822
     55 H24         7.3960   -3.2440   -2.0610 h1        1 MOL      0.107944
     56 H25         6.8520   -2.8310   -0.4340 h1        1 MOL      0.107944
     57 N5          6.2230   -0.1550   -1.7280 n         1 MOL     -0.127647
     58 C19         6.4090    1.2620   -2.2140 c3        1 MOL      0.030109
     59 C20         6.9100    2.1800   -1.0930 c         1 MOL      0.352467
     60 O10         7.1670    3.3760   -1.4460 o         1 MOL     -0.517792
     61 C21         5.0940    1.7030   -2.9360 c3        1 MOL     -0.347382
     62 C22         3.8720    2.0050   -2.0350 c         1 MOL      0.894203
     63 O11         3.8590    1.6930   -0.8050 o         1 MOL     -0.709346
     64 O12         2.8910    2.6000   -2.5500 o         1 MOL     -0.709346
     65 H26         5.2810   -0.4950   -1.6260 hn        1 MOL      0.110128
     66 H27         7.1760    1.2070   -2.9860 h1        1 MOL      0.105667
     67 H28         4.8680    0.9460   -3.6880 hc        1 MOL      0.095542
     68 H29         5.3310    2.6210   -3.4710 hc        1 MOL      0.095542
     69 N6          7.0620    1.7660    0.1330 n         1 MOL     -0.237982
     70 C23         7.3760    2.7780    1.2220 c3        1 MOL     -0.137595
     71 C24         6.2560    3.7330    1.6110 c         1 MOL      0.473749
     72 O13         6.5380    4.6990    2.3120 o         1 MOL     -0.593974
     73 H30         6.9300    0.8070    0.4100 hn        1 MOL      0.213628
     74 H31         8.2240    3.3360    0.8300 h1        1 MOL      0.097781
     75 H32         7.7150    2.2960    2.1370 h1        1 MOL      0.097781
     76 N7          5.0400    3.5150    1.1310 n         1 MOL     -0.147370
     77 C25         3.7590    4.2520    1.4570 c3        1 MOL     -0.075158
     78 C26         2.6200    3.2400    1.6360 c         1 MOL      0.476256
     79 O14         2.8380    2.0660    1.7530 o         1 MOL     -0.471098
     80 C27         3.4790    5.2520    0.2890 c3        1 MOL      0.075947
     81 C28         4.5390    6.3400    0.1680 c3        1 MOL     -0.260213
     82 C29         4.0690    7.4590   -0.7590 c         1 MOL      0.717348
     83 N8          4.8890    7.7440   -1.7540 n         1 MOL     -0.844105
     84 O15         3.1060    8.1150   -0.5320 o         1 MOL     -0.592659
     85 H33         4.9180    2.6570    0.6150 hn        1 MOL      0.113162
     86 H34         3.7860    4.8530    2.3610 h1        1 MOL      0.089797
     87 H35         2.5210    5.7630    0.3690 hc        1 MOL      0.025387
     88 H36         3.3840    4.6310   -0.6030 hc        1 MOL      0.025387
     89 H37         5.4550    5.9850   -0.2890 hc        1 MOL      0.091527
     90 H38         4.6420    6.8520    1.1160 hc        1 MOL      0.091527
     91 H39         5.4480    7.0180   -2.1670 hn        1 MOL      0.361277
     92 H40         4.5670    8.5150   -2.3280 hn        1 MOL      0.361277
     93 N9          1.3840    3.6840    1.8770 n         1 MOL     -0.449050
     94 C30         0.1470    2.8770    2.2680 c3        1 MOL     -0.042646
     95 C31        -0.9260    3.2410    1.2790 c         1 MOL      0.438683
     96 O16        -1.3580    4.3950    1.2390 o         1 MOL     -0.581186
     97 C32        -0.4870    3.0280    3.6360 c3        1 MOL      0.425030
     98 C33        -1.4790    1.9250    3.8980 c3        1 MOL     -0.295189
     99 C34         0.5830    2.9620    4.6440 c3        1 MOL     -0.295189
    100 H41         1.1580    4.6640    1.7720 hn        1 MOL      0.263683
    101 H42         0.4240    1.8290    2.1580 h1        1 MOL      0.121476
    102 H43        -0.9930    3.9950    3.6860 hc        1 MOL     -0.062821
    103 H44        -1.0650    0.9540    3.6220 hc        1 MOL      0.045273
    104 H45        -1.8120    1.9130    4.9390 hc        1 MOL      0.045273
    105 H46        -2.3910    2.1620    3.3580 hc        1 MOL      0.045273
    106 H47         0.2380    3.1760    5.6550 hc        1 MOL      0.045273
    107 H48         1.0890    1.9950    4.5940 hc        1 MOL      0.045273
    108 H49         1.3470    3.7340    4.4800 hc        1 MOL      0.045273
    109 N10        -1.4820    2.2970    0.5690 n         1 MOL     -0.138546
    110 C35        -2.6890    2.4100   -0.2290 c3        1 MOL      0.135920
    111 C36        -3.9900    2.2450    0.5870 c         1 MOL      0.170827
    112 O17        -3.9590    1.6670    1.7020 o         1 MOL     -0.325910
    113 C37        -2.6720    1.4050   -1.3100 c3        1 MOL     -0.440726
    114 C38        -3.8210    1.5040   -2.2460 c         1 MOL      0.786402
    115 N11        -4.1550    2.7540   -2.6870 n         1 MOL     -0.922414
    116 O18        -4.5490    0.5670   -2.5430 o         1 MOL     -0.564725
    117 H50        -1.0780    1.3740    0.6350 hn        1 MOL      0.192657
    118 H51        -2.6190    3.3660   -0.7390 h1        1 MOL      0.018989
    119 H52        -2.6560    0.4090   -0.8610 hc        1 MOL      0.153934
    120 H53        -1.8330    1.6170   -1.9610 hc        1 MOL      0.153934
    121 H54        -3.5460    3.4680   -2.3100 hn        1 MOL      0.411546
    122 H55        -4.8370    2.8680   -3.4220 hn        1 MOL      0.411546
    123 N12        -5.1690    2.5970    0.1340 n         1 MOL     -0.078400
    124 C39        -6.3750    2.3040    0.8750 c3        1 MOL     -0.021144
    125 C40        -6.6720    0.7940    0.9850 c         1 MOL      0.249718
    126 O19        -7.2540    0.3130    2.0030 o         1 MOL     -0.531536
    127 C41        -7.5690    3.0540    0.2050 c3        1 MOL     -0.158784
    128 C42        -7.5540    3.1270   -1.2910 ca        1 MOL     -0.036495
    129 C43        -6.9040    4.2360   -1.8870 ca        1 MOL     -0.097413
    130 C44        -8.0830    2.1580   -2.1720 ca        1 MOL     -0.097413
    131 C45        -6.8260    4.3420   -3.2680 ca        1 MOL     -0.348144
    132 C46        -8.0240    2.2380   -3.5720 ca        1 MOL     -0.348144
    133 C47        -7.4010    3.3360   -4.1590 ca        1 MOL      0.478547
    134 O20        -7.4500    3.4370   -5.4870 oh        1 MOL     -0.612731
    135 H56        -5.1700    3.0430   -0.7710 hn        1 MOL      0.082031
    136 H57        -6.2990    2.6930    1.8920 h1        1 MOL      0.114863
    137 H58        -7.6080    4.0770    0.5940 hc        1 MOL      0.086112
    138 H59        -8.5220    2.6490    0.5480 hc        1 MOL      0.086112
    139 H60        -6.5230    5.0890   -1.3530 ha        1 MOL      0.133111
    140 H61        -8.6950    1.3630   -1.7760 ha        1 MOL      0.133111
    141 H62        -6.3590    5.1940   -3.7470 ha        1 MOL      0.146183
    142 H63        -8.5450    1.4890   -4.1520 ha        1 MOL      0.146183
    143 H64        -8.0720    2.8340   -5.8980 ho        1 MOL      0.442305
    144 N13        -6.3250   -0.0940    0.0600 n         1 MOL     -0.065803
    145 C48        -6.3360   -1.5850    0.1310 c3        1 MOL     -0.305681
    146 C49        -5.4190   -2.1470    1.1900 c         1 MOL      0.484317
    147 O21        -5.6420   -3.2910    1.6030 o         1 MOL     -0.550971
    148 C50        -5.9740   -2.1790   -1.1990 c3        1 MOL      0.086509
    149 C51        -6.9010   -1.8560   -2.3360 c3        1 MOL     -0.175115
    150 C52        -8.4110   -2.1820   -2.0870 c         1 MOL      0.645362
    151 O22        -8.6120   -3.1450   -1.3190 o         1 MOL     -0.704218
    152 O23        -9.3220   -1.4110   -2.4290 o         1 MOL     -0.704218
    153 H65        -6.0090    0.3870   -0.7780 hn        1 MOL      0.459121
    154 H66        -7.3040   -1.9510    0.4750 h1        1 MOL      0.223995
    155 H67        -5.9190   -3.2640   -1.0840 hc        1 MOL      0.017091
    156 H68        -4.9440   -1.8940   -1.4330 hc        1 MOL      0.017091
    157 H69        -6.6810   -2.4560   -3.2210 hc        1 MOL     -0.002855
    158 H70        -6.7830   -0.7960   -2.5360 hc        1 MOL     -0.002855
    159 N14        -4.5040   -1.3080    1.7020 n         1 MOL     -0.008712
    160 C53        -3.5610   -1.6940    2.7820 c3        1 MOL     -0.039302
    161 C54        -4.0020   -1.1040    4.1100 c         1 MOL      0.406016
    162 O24        -3.9600   -1.8170    5.1050 o         1 MOL     -0.567604
    163 C55        -2.1520   -1.2740    2.3620 c3        1 MOL      0.097755
    164 C56        -1.6210   -2.1270    1.2320 c3        1 MOL      0.002599
    165 C57        -0.3310   -1.4240    0.7130 c         1 MOL      0.629889
    166 O25         0.5200   -2.1330    0.0870 o         1 MOL     -0.669864
    167 O26        -0.0070   -0.2300    1.0690 o         1 MOL     -0.669864
    168 H71        -4.4910   -0.3660    1.3620 hn        1 MOL     -0.170572
    169 H72        -3.4730   -2.7640    2.9380 h1        1 MOL      0.060173
    170 H73        -1.5080   -1.3850    3.2460 hc        1 MOL      0.036735
    171 H74        -2.1420   -0.2410    2.0240 hc        1 MOL      0.036735
    172 H75        -2.4270   -2.1760    0.5050 hc        1 MOL     -0.020524
    173 H76        -1.3840   -3.1230    1.5990 hc        1 MOL     -0.020524
    174 N15        -4.5070    0.0990    4.1450 n         1 MOL     -0.090071
    175 C58        -4.8240    0.8120    5.3920 c3        1 MOL     -0.040308
    176 H77        -5.7830    1.3190    5.2860 h1        1 MOL      0.032823
    177 H78        -4.8790    0.0990    6.2150 h1        1 MOL      0.032823
    178 H79        -4.0460    1.5470    5.5980 h1        1 MOL      0.032823
    179 H80        -4.3540    0.6330    3.2940 hn        1 MOL      0.124520
    180 Ca1         2.5490   -0.2930    0.4310 Ca        1 MOL      1.762016
    181 O27         2.1080   -0.5680    3.0310 oh        1 MOL     -0.964732
    182 H81         1.4730   -1.0930    3.5130 ho        1 MOL      0.449398
    183 H82         2.8680   -0.5220    3.5970 ho        1 MOL      0.449398
    184 O28         4.7400   -0.1380    1.9400 oh        1 MOL     -0.964732
    185 H83         4.7220   -0.2200    2.8890 ho        1 MOL      0.449398
    186 H84         5.6690   -0.0920    1.7230 ho        1 MOL      0.449398
    187 O29         0.9890    1.2590   -1.3960 oh        1 MOL     -0.964732
    188 H85         0.8880    0.6190   -2.1080 ho        1 MOL      0.449398
    189 H86         1.6850    1.8410   -1.7070 ho        1 MOL      0.449398
@<TRIPOS>BOND
     1    1    2 1   
     2    1    4 1   
     3    1    5 1   
     4    1    6 1   
     5    2    3 2   
     6    2    7 1   
     7    7    8 1   
     8    7   15 1   
     9    8    9 1   
    10    8   11 1   
    11    8   16 1   
    12    9   10 2   
    13    9   19 1   
    14   11   12 1   
    15   11   17 1   
    16   11   18 1   
    17   12   13 1   
    18   12   14 1   
    19   19   20 1   
    20   19   27 1   
    21   20   21 1   
    22   20   23 1   
    23   20   28 1   
    24   21   22 2   
    25   21   38 1   
    26   23   24 1   
    27   23   25 1   
    28   23   29 1   
    29   24   26 1   
    30   24   30 1   
    31   24   31 1   
    32   25   32 1   
    33   25   33 1   
    34   25   34 1   
    35   26   35 1   
    36   26   36 1   
    37   26   37 1   
    38   38   39 1   
    39   38   46 1   
    40   39   40 1   
    41   39   42 1   
    42   39   47 1   
    43   40   41 2   
    44   40   50 1   
    45   42   43 1   
    46   42   48 1   
    47   42   49 1   
    48   43   44 1   
    49   43   45 1   
    50   50   51 1   
    51   50   54 1   
    52   51   52 1   
    53   51   55 1   
    54   51   56 1   
    55   52   53 2   
    56   52   57 1   
    57   57   58 1   
    58   57   65 1   
    59   58   59 1   
    60   58   61 1   
    61   58   66 1   
    62   59   60 2   
    63   59   69 1   
    64   61   62 1   
    65   61   67 1   
    66   61   68 1   
    67   62   63 1   
    68   62   64 1   
    69   69   70 1   
    70   69   73 1   
    71   70   71 1   
    72   70   74 1   
    73   70   75 1   
    74   71   72 2   
    75   71   76 1   
    76   76   77 1   
    77   76   85 1   
    78   77   78 1   
    79   77   80 1   
    80   77   86 1   
    81   78   79 2   
    82   78   93 1   
    83   80   81 1   
    84   80   87 1   
    85   80   88 1   
    86   81   82 1   
    87   81   89 1   
    88   81   90 1   
    89   82   83 1   
    90   82   84 2   
    91   83   91 1   
    92   83   92 1   
    93   93   94 1   
    94   93  100 1   
    95   94   95 1   
    96   94   97 1   
    97   94  101 1   
    98   95   96 2   
    99   95  109 1   
   100   97   98 1   
   101   97   99 1   
   102   97  102 1   
   103   98  103 1   
   104   98  104 1   
   105   98  105 1   
   106   99  106 1   
   107   99  107 1   
   108   99  108 1   
   109  109  110 1   
   110  109  117 1   
   111  110  111 1   
   112  110  113 1   
   113  110  118 1   
   114  111  112 2   
   115  111  123 1   
   116  113  114 1   
   117  113  119 1   
   118  113  120 1   
   119  114  115 1   
   120  114  116 2   
   121  115  121 1   
   122  115  122 1   
   123  123  124 1   
   124  123  135 1   
   125  124  125 1   
   126  124  127 1   
   127  124  136 1   
   128  125  126 2   
   129  125  144 1   
   130  127  128 1   
   131  127  137 1   
   132  127  138 1   
   133  128  129 ar  
   134  128  130 ar  
   135  129  131 ar  
   136  129  139 1   
   137  130  132 ar  
   138  130  140 1   
   139  131  133 ar  
   140  131  141 1   
   141  132  133 ar  
   142  132  142 1   
   143  133  134 1   
   144  134  143 1   
   145  144  145 1   
   146  144  153 1   
   147  145  146 1   
   148  145  148 1   
   149  145  154 1   
   150  146  147 2   
   151  146  159 1   
   152  148  149 1   
   153  148  155 1   
   154  148  156 1   
   155  149  150 1   
   156  149  157 1   
   157  149  158 1   
   158  150  151 1   
   159  150  152 1   
   160  159  160 1   
   161  159  168 1   
   162  160  161 1   
   163  160  163 1   
   164  160  169 1   
   165  161  162 2   
   166  161  174 1   
   167  163  164 1   
   168  163  170 1   
   169  163  171 1   
   170  164  165 1   
   171  164  172 1   
   172  164  173 1   
   173  165  166 1   
   174  165  167 1   
   175  174  175 1   
   176  174  179 1   
   177  175  176 1   
   178  175  177 1   
   179  175  178 1   
   180  181  182 1   
   181  181  183 1   
   182  184  185 1   
   183  184  186 1   
   184  187  188 1   
   185  187  189 1   
@<TRIPOS>SUBSTRUCTURE
     1 MOL         1 TEMP              0 ****  ****    0 ROOT
