@<TRIPOS>MOLECULE
MOL
  182   178     1     0     0
SMALL
resp


@<TRIPOS>ATOM
      1 C1         -1.3280   -2.1570    6.3060 c3        1 MOL     -0.317308
      2 C2         -0.9350   -2.1550    4.8530 c         1 MOL      0.760623
      3 O1         -1.8120   -2.1450    3.9680 o         1 MOL     -0.615837
      4 H1         -2.3730   -1.8610    6.4000 hc        1 MOL      0.078817
      5 H2         -1.1960   -3.1580    6.7170 hc        1 MOL      0.078817
      6 H3         -0.7010   -1.4530    6.8530 hc        1 MOL      0.078817
      7 N1          0.3220   -1.7940    4.5650 n         1 MOL     -0.518580
      8 C3          0.8830   -1.8670    3.2250 c3        1 MOL     -0.080041
      9 C4          1.0020   -3.3760    2.7690 c         1 MOL      0.463390
     10 O2          1.6770   -4.1980    3.3830 o         1 MOL     -0.527607
     11 C5          2.1540   -1.0100    3.1620 c3        1 MOL      0.123130
     12 C6          2.8890   -0.9300    1.8920 c         1 MOL      0.646643
     13 O3          2.3240   -1.3440    0.8660 o         1 MOL     -0.697576
     14 O4          3.9970   -0.4130    1.9240 o         1 MOL     -0.697576
     15 H4          0.9950   -1.5990    5.2980 hn        1 MOL      0.302849
     16 H5          0.1430   -1.5030    2.5180 h1        1 MOL      0.018693
     17 H6          2.8330   -1.2270    3.9930 hc        1 MOL     -0.013495
     18 H7          1.8760    0.0080    3.4330 hc        1 MOL     -0.013495
     19 N2          0.3430   -3.7120    1.6820 n         1 MOL     -0.221427
     20 C7          0.4200   -5.0470    0.9980 c3        1 MOL     -0.205023
     21 C8          1.8390   -5.4460    0.6510 c         1 MOL      0.492233
     22 O5          2.2120   -6.6030    1.0170 o         1 MOL     -0.550257
     23 C9         -0.4720   -5.0580   -0.1990 c3        1 MOL     -0.051862
     24 C10        -0.6610   -6.4060   -0.8470 c3        1 MOL      0.197602
     25 C11        -1.8090   -6.3070   -1.8960 c3        1 MOL      0.247405
     26 C12        -2.0300   -7.5600   -2.7850 c3        1 MOL     -0.232041
     27 N3         -1.0070   -7.5740   -3.8750 n4        1 MOL     -0.331474
     28 H8         -0.1460   -3.0030    1.1400 hn        1 MOL      0.222519
     29 H9          0.1420   -5.7180    1.8140 h1        1 MOL      0.145810
     30 H10        -0.2030   -4.2150   -0.8360 hc        1 MOL      0.003555
     31 H11        -1.4540   -4.7030    0.1220 hc        1 MOL      0.003555
     32 H12        -0.8830   -7.2440   -0.1850 hc        1 MOL     -0.045641
     33 H13         0.2370   -6.5500   -1.4510 hc        1 MOL     -0.045641
     34 H14        -1.6840   -5.4670   -2.5820 hc        1 MOL     -0.050636
     35 H15        -2.7580   -6.0700   -1.4310 hc        1 MOL     -0.050636
     36 H16        -2.9710   -7.3620   -3.2990 hx        1 MOL      0.155889
     37 H17        -2.0960   -8.4800   -2.2070 hx        1 MOL      0.155889
     38 H18        -0.0400   -7.5410   -3.5810 hn        1 MOL      0.323810
     39 H19        -1.1060   -8.4450   -4.3640 hn        1 MOL      0.323810
     40 H20        -1.2660   -6.9270   -4.6070 hn        1 MOL      0.323810
     41 N4          2.6580   -4.5510    0.0140 n         1 MOL     -0.330191
     42 C13         3.8990   -4.9110   -0.6430 c3        1 MOL      0.113150
     43 C14         5.1420   -4.1610   -0.1080 c         1 MOL      0.491346
     44 O6          6.2390   -4.4170   -0.6420 o         1 MOL     -0.551344
     45 C15         3.6940   -4.7430   -2.1650 c3        1 MOL     -0.353211
     46 C16         2.9660   -3.4430   -2.6240 c         1 MOL      0.840572
     47 O7          2.6690   -2.5400   -1.8270 o         1 MOL     -0.754969
     48 O8          2.7260   -3.2460   -3.8330 o         1 MOL     -0.754969
     49 H21         2.3220   -3.6060   -0.1260 hn        1 MOL      0.251439
     50 H22         4.1430   -5.9250   -0.3490 h1        1 MOL      0.074901
     51 H23         3.0770   -5.5690   -2.5140 hc        1 MOL      0.081358
     52 H24         4.6810   -4.7620   -2.6270 hc        1 MOL      0.081358
     53 N5          5.0480   -3.2800    0.8590 n         1 MOL     -0.301087
     54 C17         6.3070   -2.7760    1.4790 c3        1 MOL     -0.076490
     55 C18         6.9880   -1.6960    0.6040 c         1 MOL      0.506905
     56 O9          8.2130   -1.4700    0.7930 o         1 MOL     -0.561040
     57 H25         4.1960   -2.9970    1.3230 hn        1 MOL      0.249460
     58 H26         7.0580   -3.5520    1.6270 h1        1 MOL      0.085560
     59 H27         6.1250   -2.3050    2.4440 h1        1 MOL      0.085560
     60 N6          6.1760   -0.9270   -0.1250 n         1 MOL     -0.248782
     61 C19         6.5870    0.2000   -0.9610 c3        1 MOL      0.004114
     62 C20         6.4120    1.6060   -0.3610 c         1 MOL      0.237598
     63 O10         6.9420    2.5310   -0.9950 o         1 MOL     -0.486060
     64 C21         5.8880    0.1470   -2.3430 c3        1 MOL     -0.323964
     65 C22         4.4710    0.7200   -2.2230 c         1 MOL      0.483787
     66 N7          4.0900    1.6830   -3.0030 n         1 MOL     -0.660752
     67 O11         3.5920    0.2660   -1.4330 o         1 MOL     -0.398017
     68 H28         5.1970   -1.1800   -0.1870 hn        1 MOL      0.177551
     69 H29         7.6630    0.0790   -1.1430 h1        1 MOL      0.131973
     70 H30         5.7600   -0.8900   -2.6410 hc        1 MOL      0.144431
     71 H31         6.4940    0.6150   -3.1290 hc        1 MOL      0.144431
     72 H32         4.8220    2.0430   -3.5930 hn        1 MOL      0.344465
     73 H33         3.1430    2.0390   -3.0710 hn        1 MOL      0.344465
     74 N8          5.6990    1.6850    0.7170 n         1 MOL      0.116180
     75 C23         5.6590    2.7950    1.6220 c3        1 MOL     -0.473312
     76 C24         4.3760    3.6260    1.4900 c         1 MOL      0.666149
     77 O12         4.2940    4.6130    2.2250 o         1 MOL     -0.558750
     78 H34         5.3160    0.7950    1.0080 hn        1 MOL      0.161939
     79 H35         6.4690    3.4930    1.4450 h1        1 MOL      0.184818
     80 H36         5.6120    2.3960    2.6320 h1        1 MOL      0.184818
     81 N9          3.4680    3.2610    0.5730 n         1 MOL     -0.352271
     82 C25         2.2100    3.9480    0.3250 c3        1 MOL      0.142810
     83 C26         0.9260    3.0030    0.3220 c         1 MOL      0.528872
     84 O13         1.0840    1.8210    0.0420 o         1 MOL     -0.607992
     85 C27         2.3930    4.8500   -0.8840 c3        1 MOL      0.037151
     86 C28         3.5500    5.8180   -0.8590 ca        1 MOL      0.118348
     87 C29         4.7460    5.4270   -1.4980 ca        1 MOL     -0.285164
     88 C30         3.4050    7.0510   -0.1900 ca        1 MOL     -0.285164
     89 C31         5.8500    6.3210   -1.5560 ca        1 MOL     -0.122202
     90 C32         4.5180    7.9700   -0.2730 ca        1 MOL     -0.122202
     91 C33         5.7010    7.6450   -0.9610 ca        1 MOL      0.189754
     92 O14         6.7980    8.4810   -0.8330 oh        1 MOL     -0.450385
     93 H37         3.5630    2.4020    0.0510 hn        1 MOL      0.160516
     94 H38         2.0360    4.6570    1.1310 h1        1 MOL      0.006946
     95 H39         1.4910    5.4280   -1.0700 hc        1 MOL     -0.019386
     96 H40         2.5550    4.1590   -1.7140 hc        1 MOL     -0.019386
     97 H41         5.0060    4.4060   -1.7440 ha        1 MOL      0.166640
     98 H42         2.5150    7.3430    0.3500 ha        1 MOL      0.166640
     99 H43         6.8320    6.0060   -1.8620 ha        1 MOL      0.123602
    100 H44         4.4720    8.9520    0.1670 ha        1 MOL      0.123602
    101 H45         6.5950    9.3200   -0.3960 ho        1 MOL      0.350171
    102 N10        -0.2140    3.4880    0.8560 n         1 MOL     -0.601595
    103 C34        -1.4290    2.6390    0.9540 c3        1 MOL      0.026183
    104 C35        -2.6020    3.3500    0.2400 c         1 MOL      0.643472
    105 O15        -2.9150    4.5270    0.5370 o         1 MOL     -0.563679
    106 C36        -1.8520    2.1760    2.4380 c3        1 MOL      0.013091
    107 C37        -0.6130    2.1640    3.3830 c3        1 MOL      0.377417
    108 C38        -2.6370    0.7830    2.4120 c3        1 MOL     -0.666679
    109 C39        -0.9240    1.8960    4.8350 c3        1 MOL     -0.407381
    110 H46        -0.1460    4.3770    1.3360 hn        1 MOL      0.363921
    111 H47        -1.3100    1.7450    0.3480 h1        1 MOL      0.034458
    112 H48        -2.5330    2.9120    2.8510 hc        1 MOL      0.012492
    113 H49        -0.1520    3.1600    3.3810 hc        1 MOL     -0.045997
    114 H50         0.1350    1.4410    3.0720 hc        1 MOL     -0.045997
    115 H51        -3.4870    0.9090    1.7320 hc        1 MOL      0.217332
    116 H52        -1.9380   -0.0190    2.1660 hc        1 MOL      0.217332
    117 H53        -2.9980    0.5140    3.4040 hc        1 MOL      0.217332
    118 H54        -1.5880    2.6910    5.1580 hc        1 MOL      0.084941
    119 H55        -1.3500    0.8930    4.9150 hc        1 MOL      0.084941
    120 H56        -0.0090    2.0380    5.4120 hc        1 MOL      0.084941
    121 N11        -3.1600    2.7240   -0.8270 n         1 MOL     -0.445329
    122 C40        -4.3310    3.3360   -1.4830 c3        1 MOL     -0.028978
    123 C41        -5.5840    3.0430   -0.6330 c         1 MOL      0.368755
    124 O16        -5.5880    2.0910    0.0840 o         1 MOL     -0.299901
    125 C42        -4.6330    2.8000   -2.9140 c3        1 MOL     -0.037023
    126 O17        -5.0750    1.4230   -2.9460 oh        1 MOL     -0.483266
    127 H57        -3.1200    1.7130   -0.8850 hn        1 MOL      0.336551
    128 H58        -4.1570    4.4010   -1.6200 h1        1 MOL      0.099964
    129 H59        -3.7260    2.8730   -3.5110 h1        1 MOL      0.089977
    130 H60        -5.3960    3.4020   -3.4130 h1        1 MOL      0.089977
    131 H61        -4.2530    0.9300   -3.0720 ho        1 MOL      0.379329
    132 N12        -6.6320    3.8710   -0.7790 n         1 MOL     -0.374002
    133 C43        -7.9090    3.7120    0.0190 c3        1 MOL      0.046786
    134 C44        -8.5470    2.2720   -0.2180 c         1 MOL      0.527724
    135 O18        -9.0040    1.6170    0.6950 o         1 MOL     -0.529897
    136 C45        -8.9380    4.8090   -0.2100 c3        1 MOL     -0.340391
    137 H62        -6.6130    4.6860   -1.3780 hn        1 MOL      0.277833
    138 H63        -7.6480    3.6800    1.0810 h1        1 MOL      0.099441
    139 H64        -8.5190    5.7650    0.1190 hc        1 MOL      0.113289
    140 H65        -9.3470    4.9740   -1.2010 hc        1 MOL      0.113289
    141 H66        -9.7460    4.5740    0.4890 hc        1 MOL      0.113289
    142 N13        -8.4070    1.6920   -1.3490 n         1 MOL     -0.505304
    143 C46        -8.6910    0.2800   -1.7750 c3        1 MOL      0.352710
    144 C47        -7.9800   -0.8240   -1.0060 c         1 MOL      0.283586
    145 O19        -8.5340   -1.8300   -0.6290 o         1 MOL     -0.482415
    146 C48        -8.6070    0.2560   -3.2760 c3        1 MOL     -0.184823
    147 H67        -7.8710    2.2170   -2.0100 hn        1 MOL      0.271596
    148 H68        -9.7460    0.0650   -1.5880 h1        1 MOL      0.028328
    149 H69        -9.2890    1.0120   -3.6640 hc        1 MOL      0.045711
    150 H70        -7.5530    0.3870   -3.5390 hc        1 MOL      0.045711
    151 H71        -8.9370   -0.7230   -3.6420 hc        1 MOL      0.045711
    152 N14        -6.6580   -0.6500   -0.9000 n         1 MOL     -0.011637
    153 C49        -5.7900   -1.5290   -0.1810 c3        1 MOL     -0.226497
    154 C50        -5.9920   -1.4140    1.3790 c         1 MOL      0.477654
    155 O20        -5.8780   -2.3870    2.1090 o         1 MOL     -0.539390
    156 C51        -4.3310   -1.1980   -0.6080 c3        1 MOL     -0.070926
    157 C52        -3.1630   -1.9820   -0.0750 c3        1 MOL      0.120216
    158 C53        -1.8080   -1.3350   -0.3570 c         1 MOL      0.630174
    159 O21        -1.6760   -0.2910   -1.0960 o         1 MOL     -0.745958
    160 O22        -0.7240   -1.7590    0.1490 o         1 MOL     -0.745958
    161 H72        -6.2950    0.2180   -1.2720 hn        1 MOL     -0.012179
    162 H73        -5.8770   -2.5470   -0.5670 h1        1 MOL      0.124584
    163 H74        -4.1550   -0.1640   -0.3210 hc        1 MOL     -0.012307
    164 H75        -4.2450   -1.1910   -1.7040 hc        1 MOL     -0.012307
    165 H76        -3.1890   -2.9990   -0.4830 hc        1 MOL      0.031672
    166 H77        -3.2510   -1.9980    1.0070 hc        1 MOL      0.031672
    167 N15        -6.4350   -0.2340    1.8000 n         1 MOL      0.005227
    168 C54        -6.5940    0.1140    3.1930 c3        1 MOL     -0.215448
    169 H78        -7.6400    0.3500    3.3910 h1        1 MOL      0.084774
    170 H79        -6.2880   -0.7270    3.8150 h1        1 MOL      0.084774
    171 H80        -5.9760    0.9820    3.4240 h1        1 MOL      0.084774
    172 H81        -6.5960    0.4200    1.0520 hn        1 MOL      0.081969
    173 Ca1         1.1320   -0.5540   -1.2030 Ca        1 MOL      1.821390
    174 O23         0.6380    1.6230   -2.5740 oh        1 MOL     -0.865291
    175 H82         0.6020    1.6800   -3.5280 ho        1 MOL      0.409508
    176 H83         0.2350    2.4330   -2.2730 ho        1 MOL      0.409508
    177 O24        -0.3260   -2.3770   -2.7760 oh        1 MOL     -0.865291
    178 H84        -1.2720   -2.2380   -2.8310 ho        1 MOL      0.409508
    179 H85        -0.1480   -3.0650   -3.4210 ho        1 MOL      0.409508
    180 O25         1.8190   -0.6820   -3.8900 oh        1 MOL     -0.865291
    181 H86         1.9640   -1.6170   -3.7740 ho        1 MOL      0.409508
    182 H87         1.6480   -0.5790   -4.8220 ho        1 MOL      0.409508
@<TRIPOS>BOND
     1    1    2 1   
     2    1    4 1   
     3    1    5 1   
     4    1    6 1   
     5    2    3 2   
     6    2    7 1   
     7    7    8 1   
     8    7   15 1   
     9    8    9 1   
    10    8   11 1   
    11    8   16 1   
    12    9   10 2   
    13    9   19 1   
    14   11   12 1   
    15   11   17 1   
    16   11   18 1   
    17   12   13 1   
    18   12   14 1   
    19   19   20 1   
    20   19   28 1   
    21   20   21 1   
    22   20   23 1   
    23   20   29 1   
    24   21   22 2   
    25   21   41 1   
    26   23   24 1   
    27   23   30 1   
    28   23   31 1   
    29   24   25 1   
    30   24   32 1   
    31   24   33 1   
    32   25   26 1   
    33   25   34 1   
    34   25   35 1   
    35   26   27 1   
    36   26   36 1   
    37   26   37 1   
    38   27   38 1   
    39   27   39 1   
    40   27   40 1   
    41   41   42 1   
    42   41   49 1   
    43   42   43 1   
    44   42   45 1   
    45   42   50 1   
    46   43   44 2   
    47   43   53 1   
    48   45   46 1   
    49   45   51 1   
    50   45   52 1   
    51   46   47 1   
    52   46   48 1   
    53   53   54 1   
    54   53   57 1   
    55   54   55 1   
    56   54   58 1   
    57   54   59 1   
    58   55   56 2   
    59   55   60 1   
    60   60   61 1   
    61   60   68 1   
    62   61   62 1   
    63   61   64 1   
    64   61   69 1   
    65   62   63 2   
    66   62   74 1   
    67   64   65 1   
    68   64   70 1   
    69   64   71 1   
    70   65   66 1   
    71   65   67 2   
    72   66   72 1   
    73   66   73 1   
    74   74   75 1   
    75   74   78 1   
    76   75   76 1   
    77   75   79 1   
    78   75   80 1   
    79   76   77 2   
    80   76   81 1   
    81   81   82 1   
    82   81   93 1   
    83   82   83 1   
    84   82   85 1   
    85   82   94 1   
    86   83   84 2   
    87   83  102 1   
    88   85   86 1   
    89   85   95 1   
    90   85   96 1   
    91   86   87 ar  
    92   86   88 ar  
    93   87   89 ar  
    94   87   97 1   
    95   88   90 ar  
    96   88   98 1   
    97   89   91 ar  
    98   89   99 1   
    99   90   91 ar  
   100   90  100 1   
   101   91   92 1   
   102   92  101 1   
   103  102  103 1   
   104  102  110 1   
   105  103  104 1   
   106  103  106 1   
   107  103  111 1   
   108  104  105 2   
   109  104  121 1   
   110  106  107 1   
   111  106  108 1   
   112  106  112 1   
   113  107  109 1   
   114  107  113 1   
   115  107  114 1   
   116  108  115 1   
   117  108  116 1   
   118  108  117 1   
   119  109  118 1   
   120  109  119 1   
   121  109  120 1   
   122  121  122 1   
   123  121  127 1   
   124  122  123 1   
   125  122  125 1   
   126  122  128 1   
   127  123  124 2   
   128  123  132 1   
   129  125  126 1   
   130  125  129 1   
   131  125  130 1   
   132  126  131 1   
   133  132  133 1   
   134  132  137 1   
   135  133  134 1   
   136  133  136 1   
   137  133  138 1   
   138  134  135 2   
   139  134  142 1   
   140  136  139 1   
   141  136  140 1   
   142  136  141 1   
   143  142  143 1   
   144  142  147 1   
   145  143  144 1   
   146  143  146 1   
   147  143  148 1   
   148  144  145 2   
   149  144  152 1   
   150  146  149 1   
   151  146  150 1   
   152  146  151 1   
   153  152  153 1   
   154  152  161 1   
   155  153  154 1   
   156  153  156 1   
   157  153  162 1   
   158  154  155 2   
   159  154  167 1   
   160  156  157 1   
   161  156  163 1   
   162  156  164 1   
   163  157  158 1   
   164  157  165 1   
   165  157  166 1   
   166  158  159 1   
   167  158  160 1   
   168  167  168 1   
   169  167  172 1   
   170  168  169 1   
   171  168  170 1   
   172  168  171 1   
   173  174  175 1   
   174  174  176 1   
   175  177  178 1   
   176  177  179 1   
   177  180  181 1   
   178  180  182 1   
@<TRIPOS>SUBSTRUCTURE
     1 MOL         1 TEMP              0 ****  ****    0 ROOT
