@<TRIPOS>MOLECULE
MOL
  179   176     1     0     0
SMALL
resp


@<TRIPOS>ATOM
      1 C1          0.0910    5.0640    6.0680 c3        1 MOL     -0.392658
      2 C2          0.0900    4.8100    4.5350 c         1 MOL      0.745538
      3 O1          1.0050    5.2880    3.8710 o         1 MOL     -0.585540
      4 H1         -0.2730    4.1750    6.5830 hc        1 MOL      0.099132
      5 H2          1.1050    5.2870    6.4000 hc        1 MOL      0.099132
      6 H3         -0.5610    5.9080    6.2970 hc        1 MOL      0.099132
      7 N1         -0.8450    3.9510    4.0840 n         1 MOL     -0.596010
      8 C3         -0.8940    3.5880    2.6590 c3        1 MOL     -0.051783
      9 C4         -1.2880    4.8640    1.8670 c         1 MOL      0.599045
     10 O2         -2.3270    5.3870    2.1030 o         1 MOL     -0.514521
     11 C5         -1.9540    2.5190    2.4560 c3        1 MOL     -0.008807
     12 C6         -1.8650    1.7260    1.1780 c         1 MOL      0.713553
     13 O3         -0.8420    1.7430    0.4740 o         1 MOL     -0.750082
     14 O4         -2.8360    1.0520    0.7120 o         1 MOL     -0.750082
     15 H4         -1.4670    3.4850    4.7340 hn        1 MOL      0.339503
     16 H5          0.0670    3.1800    2.3520 h1        1 MOL      0.092649
     17 H6         -2.9510    2.9620    2.4470 hc        1 MOL      0.026741
     18 H7         -1.9640    1.7680    3.2440 hc        1 MOL      0.026741
     19 N2         -0.5490    5.1730    0.8060 n         1 MOL     -0.400967
     20 C7         -0.7300    6.3910    0.0150 c3        1 MOL     -0.153585
     21 C8         -1.9230    6.1940   -0.9540 c         1 MOL      0.468233
     22 O5         -2.5550    7.2740   -1.2840 o         1 MOL     -0.540022
     23 C9          0.5810    6.8190   -0.6980 c3        1 MOL     -0.139515
     24 C10         1.4580    7.4890    0.3470 c3        1 MOL      0.181492
     25 C11         2.8000    7.9950   -0.2590 c3        1 MOL     -0.257060
     26 C12         2.8840    8.8730   -1.5580 c3        1 MOL      0.169402
     27 N3          4.2420    9.2960   -1.9890 n4        1 MOL     -0.311131
     28 H8          0.1600    4.5260    0.4890 hn        1 MOL      0.277672
     29 H9         -1.0160    7.1010    0.7840 h1        1 MOL      0.149684
     30 H10         0.3140    7.5590   -1.4540 hc        1 MOL      0.081798
     31 H11         1.0900    5.9510   -1.1370 hc        1 MOL      0.081798
     32 H12         1.7000    6.8410    1.1920 hc        1 MOL      0.019499
     33 H13         0.9550    8.3750    0.7570 hc        1 MOL      0.019499
     34 H14         3.2820    7.0730   -0.5580 hc        1 MOL      0.081526
     35 H15         3.3500    8.5740    0.4800 hc        1 MOL      0.081526
     36 H16         2.4130    9.8230   -1.3440 hx        1 MOL      0.038260
     37 H17         2.3750    8.3420   -2.3610 hx        1 MOL      0.038260
     38 H18         4.7700    9.8610   -1.3490 hn        1 MOL      0.311276
     39 H19         4.8440    8.5280   -2.2290 hn        1 MOL      0.311276
     40 H20         4.1820    9.8490   -2.8380 hn        1 MOL      0.311276
     41 N4         -2.2540    4.9560   -1.3080 n         1 MOL     -0.387912
     42 C13        -3.4210    4.7460   -2.1590 c3        1 MOL      0.068647
     43 C14        -4.6470    4.3190   -1.3840 c         1 MOL      0.525390
     44 O6         -5.7280    4.4200   -1.9150 o         1 MOL     -0.555942
     45 C15        -3.0830    3.7660   -3.2170 c3        1 MOL     -0.123803
     46 C16        -2.5650    2.4830   -2.6320 c         1 MOL      0.671666
     47 O7         -1.3310    2.3180   -2.5270 o         1 MOL     -0.738505
     48 O8         -3.3360    1.5780   -2.2390 o         1 MOL     -0.738505
     49 H21        -1.5820    4.2380   -1.0640 hn        1 MOL      0.308785
     50 H22        -3.7620    5.6960   -2.5600 h1        1 MOL      0.077695
     51 H23        -2.3250    4.1540   -3.8920 hc        1 MOL      0.042688
     52 H24        -3.9410    3.6220   -3.8680 hc        1 MOL      0.042688
     53 N5         -4.4900    3.7360   -0.1870 n         1 MOL     -0.151787
     54 C17        -5.5430    3.3620    0.7280 c3        1 MOL     -0.387824
     55 C18        -6.1550    2.0070    0.3570 c         1 MOL      0.598220
     56 O9         -7.0440    1.5520    1.1040 o         1 MOL     -0.593539
     57 H25        -3.5850    3.4010    0.1300 hn        1 MOL      0.123631
     58 H26        -6.2660    4.1620    0.5800 h1        1 MOL      0.178508
     59 H27        -5.0960    3.3550    1.7220 h1        1 MOL      0.178508
     60 N6         -5.7630    1.2420   -0.6750 n         1 MOL     -0.309138
     61 C19        -6.5440    0.0410   -1.1490 c3        1 MOL      0.014045
     62 C20        -6.5340   -1.1520   -0.1720 c         1 MOL      0.355841
     63 O10        -7.1550   -2.2230   -0.4040 o         1 MOL     -0.524816
     64 C21        -6.1180   -0.3310   -2.5640 c3        1 MOL     -0.141564
     65 C22        -4.7690   -1.0150   -2.6400 c         1 MOL      0.661575
     66 N7         -4.4520   -1.4590   -3.8340 n         1 MOL     -0.713023
     67 O11        -4.0560   -1.2960   -1.6550 o         1 MOL     -0.632400
     68 H28        -4.9860    1.5600   -1.2230 hn        1 MOL      0.218600
     69 H29        -7.5850    0.3130   -1.2870 h1        1 MOL      0.112941
     70 H30        -6.1730    0.5620   -3.1780 hc        1 MOL      0.067679
     71 H31        -6.8970   -0.9600   -2.9970 hc        1 MOL      0.067679
     72 H32        -5.0500   -1.1620   -4.5850 hn        1 MOL      0.341607
     73 H33        -3.6570   -2.0650   -3.9860 hn        1 MOL      0.341607
     74 N8         -5.7710   -1.0520    0.9110 n         1 MOL     -0.049664
     75 C23        -5.8190   -1.9880    2.0130 c3        1 MOL     -0.225322
     76 C24        -4.7730   -3.1230    1.9930 c         1 MOL      0.396974
     77 O12        -4.6440   -3.8750    2.9970 o         1 MOL     -0.551567
     78 H34        -5.0530   -0.3510    0.8290 hn        1 MOL      0.152833
     79 H35        -6.8360   -2.3810    2.0330 h1        1 MOL      0.128219
     80 H36        -5.7130   -1.4640    2.9600 h1        1 MOL      0.128219
     81 N9         -3.9850   -3.2940    0.9280 n         1 MOL      0.108061
     82 C25        -2.7210   -3.9860    0.9740 c3        1 MOL      0.156766
     83 C26        -1.4490   -3.1280    0.9510 c         1 MOL      0.473152
     84 O13        -1.4840   -2.0140    0.5690 o         1 MOL     -0.645654
     85 C27        -2.8520   -5.1210   -0.0720 c3        1 MOL     -0.140946
     86 C28        -3.9670   -6.0900    0.2320 ca        1 MOL      0.265443
     87 C29        -5.2510   -5.7520   -0.1600 ca        1 MOL     -0.387318
     88 C30        -3.5960   -7.4490    0.5430 ca        1 MOL     -0.387318
     89 C31        -6.2250   -6.7220   -0.1090 ca        1 MOL     -0.059330
     90 C32        -4.6350   -8.4510    0.5920 ca        1 MOL     -0.059330
     91 C33        -5.9200   -8.1370    0.1990 ca        1 MOL      0.142751
     92 O14        -6.9120   -9.0730    0.1540 oh        1 MOL     -0.444528
     93 H37        -3.9370   -2.6610    0.1430 hn        1 MOL      0.101389
     94 H38        -2.6340   -4.5490    1.9080 h1        1 MOL     -0.015876
     95 H39        -1.8870   -5.6240   -0.1450 hc        1 MOL      0.028846
     96 H40        -3.0470   -4.6390   -1.0280 hc        1 MOL      0.028846
     97 H41        -5.4670   -4.8090   -0.6400 ha        1 MOL      0.178005
     98 H42        -2.5700   -7.6650    0.7910 ha        1 MOL      0.178005
     99 H43        -7.2440   -6.4700   -0.3600 ha        1 MOL      0.106865
    100 H44        -4.4050   -9.4700    0.8510 ha        1 MOL      0.106865
    101 H45        -6.6050   -9.9500    0.3760 ho        1 MOL      0.351601
    102 N10        -0.2420   -3.6490    1.4800 n         1 MOL     -0.521109
    103 C34         1.1070   -2.9610    1.3230 c3        1 MOL     -0.061573
    104 C35         2.1770   -3.9640    0.8190 c         1 MOL      0.495877
    105 O15         2.3430   -5.0580    1.3790 o         1 MOL     -0.563232
    106 C36         1.4770   -2.1370    2.6960 c3        1 MOL      0.157174
    107 C37         0.9660   -0.7120    2.4990 c3        1 MOL      0.037048
    108 C38         2.9580   -2.0810    3.0110 c3        1 MOL     -0.227266
    109 C39         1.1660    0.2260    3.7080 c3        1 MOL     -0.205693
    110 H46        -0.2930   -4.4990    2.0190 hn        1 MOL      0.325910
    111 H47         1.0030   -2.1910    0.5550 h1        1 MOL      0.029159
    112 H48         0.9370   -2.4780    3.5800 hc        1 MOL      0.017343
    113 H49        -0.0880   -0.7040    2.2510 hc        1 MOL      0.056440
    114 H50         1.4260   -0.1100    1.7080 hc        1 MOL      0.056440
    115 H51         3.6070   -1.6010    2.2780 hc        1 MOL      0.042693
    116 H52         3.1540   -1.5800    3.9650 hc        1 MOL      0.042693
    117 H53         3.2780   -3.1180    3.1260 hc        1 MOL      0.042693
    118 H54         2.2120    0.5550    3.7800 hc        1 MOL      0.039597
    119 H55         0.4910    1.0850    3.7360 hc        1 MOL      0.039597
    120 H56         0.9520   -0.3700    4.5900 hc        1 MOL      0.039597
    121 N11         2.8720   -3.6700   -0.2200 n         1 MOL     -0.263076
    122 C40         4.0410   -4.3970   -0.7240 c3        1 MOL     -0.080843
    123 C41         5.3380   -3.7060   -0.1830 c         1 MOL      0.333985
    124 O16         5.3290   -2.6270    0.4010 o         1 MOL     -0.189673
    125 C42         4.0330   -4.3980   -2.2350 c3        1 MOL     -0.012991
    126 O17         4.1850   -3.1280   -2.8780 oh        1 MOL     -0.558785
    127 H57         2.6690   -2.7930   -0.6690 hn        1 MOL      0.281346
    128 H58         3.9400   -5.4300   -0.3930 h1        1 MOL      0.098319
    129 H59         3.1050   -4.8090   -2.6050 h1        1 MOL      0.078473
    130 H60         4.8750   -4.9580   -2.6330 h1        1 MOL      0.078473
    131 H61         3.3590   -2.6600   -2.7600 ho        1 MOL      0.380116
    132 N12         6.4630   -4.4000   -0.3190 n         1 MOL     -0.306522
    133 C43         7.7290   -4.0040    0.2420 c3        1 MOL     -0.036619
    134 C44         8.2810   -2.7250   -0.1940 c         1 MOL      0.585896
    135 O18         8.9240   -2.0420    0.5920 o         1 MOL     -0.541386
    136 C45         8.7570   -5.1050    0.0860 c3        1 MOL     -0.224224
    137 H62         6.3440   -5.2620   -0.8420 hn        1 MOL      0.264182
    138 H63         7.6370   -3.9370    1.3290 h1        1 MOL      0.121959
    139 H64         9.7290   -4.7580    0.4380 hc        1 MOL      0.078927
    140 H65         8.5730   -6.0450    0.6110 hc        1 MOL      0.078927
    141 H66         8.8920   -5.3380   -0.9730 hc        1 MOL      0.078927
    142 N13         8.0530   -2.2420   -1.4650 n         1 MOL     -0.477754
    143 C46         8.3770   -0.9030   -1.9110 c3        1 MOL      0.090087
    144 C47         7.4760    0.2810   -1.4180 c         1 MOL      0.423751
    145 O19         7.8840    1.4160   -1.4970 o         1 MOL     -0.522390
    146 C48         8.3910   -0.9060   -3.4670 c3        1 MOL     -0.220257
    147 H67         7.4670   -2.8010   -2.0670 hn        1 MOL      0.306006
    148 H68         9.4000   -0.6980   -1.5810 h1        1 MOL      0.102671
    149 H69         7.4030   -1.0370   -3.9220 hc        1 MOL      0.064779
    150 H70         8.8500    0.0310   -3.7740 hc        1 MOL      0.064779
    151 H71         9.0060   -1.7380   -3.7940 hc        1 MOL      0.064779
    152 N14         6.2570   -0.0210   -0.9520 n         1 MOL     -0.206198
    153 C49         5.5160    0.9050   -0.1380 c3        1 MOL      0.101721
    154 C50         5.9080    0.7610    1.3780 c         1 MOL      0.325781
    155 O20         6.1700    1.6940    2.1220 o         1 MOL     -0.559100
    156 C51         4.0580    0.6040   -0.1290 c3        1 MOL      0.007786
    157 C52         3.4020    0.6090   -1.4760 c3        1 MOL     -0.134307
    158 C53         2.1550   -0.2990   -1.5150 c         1 MOL      0.740313
    159 O21         2.3250   -1.5180   -1.7230 o         1 MOL     -0.715313
    160 O22         1.0630    0.2260   -1.3050 o         1 MOL     -0.715313
    161 H72         6.0300   -1.0010   -0.8760 hn        1 MOL      0.078419
    162 H73         5.6390    1.9550   -0.4040 h1        1 MOL      0.054667
    163 H74         3.5860    1.4510    0.3750 hc        1 MOL      0.022816
    164 H75         3.8340   -0.3000    0.4320 hc        1 MOL      0.022816
    165 H76         4.0320    0.3410   -2.3260 hc        1 MOL      0.027193
    166 H77         3.2700    1.6470   -1.7560 hc        1 MOL      0.027193
    167 N15         6.1820   -0.4230    1.8360 n         1 MOL      0.131479
    168 C54         6.6130   -0.7370    3.2450 c3        1 MOL     -0.303591
    169 H78         6.6650   -1.8170    3.3750 h1        1 MOL      0.113106
    170 H79         7.5940   -0.3000    3.4310 h1        1 MOL      0.113106
    171 H80         5.8900   -0.3210    3.9470 h1        1 MOL      0.113106
    172 H81         5.9340   -1.2450    1.3080 hn        1 MOL     -0.086312
    173 Ca1        -1.5240    0.0260   -1.3190 Ca        1 MOL      1.792809
    174 O23        -1.2490   -0.4460   -4.1060 oh        1 MOL     -0.822467
    175 H82        -1.7160    0.2210   -4.6070 ho        1 MOL      0.407599
    176 H83        -1.0770   -1.1390   -4.7370 ho        1 MOL      0.407599
    177 O24        -0.1660   -2.4260   -1.8640 oh        1 MOL     -0.822467
    178 H84         0.6620   -1.9750   -1.6750 ho        1 MOL      0.407599
    179 H85         0.0780   -3.3400   -1.9610 ho        1 MOL      0.407599
@<TRIPOS>BOND
     1    1    2 1   
     2    1    4 1   
     3    1    5 1   
     4    1    6 1   
     5    2    3 2   
     6    2    7 1   
     7    7    8 1   
     8    7   15 1   
     9    8    9 1   
    10    8   11 1   
    11    8   16 1   
    12    9   10 2   
    13    9   19 1   
    14   11   12 1   
    15   11   17 1   
    16   11   18 1   
    17   12   13 1   
    18   12   14 1   
    19   19   20 1   
    20   19   28 1   
    21   20   21 1   
    22   20   23 1   
    23   20   29 1   
    24   21   22 2   
    25   21   41 1   
    26   23   24 1   
    27   23   30 1   
    28   23   31 1   
    29   24   25 1   
    30   24   32 1   
    31   24   33 1   
    32   25   26 1   
    33   25   34 1   
    34   25   35 1   
    35   26   27 1   
    36   26   36 1   
    37   26   37 1   
    38   27   38 1   
    39   27   39 1   
    40   27   40 1   
    41   41   42 1   
    42   41   49 1   
    43   42   43 1   
    44   42   45 1   
    45   42   50 1   
    46   43   44 2   
    47   43   53 1   
    48   45   46 1   
    49   45   51 1   
    50   45   52 1   
    51   46   47 1   
    52   46   48 1   
    53   53   54 1   
    54   53   57 1   
    55   54   55 1   
    56   54   58 1   
    57   54   59 1   
    58   55   56 2   
    59   55   60 1   
    60   60   61 1   
    61   60   68 1   
    62   61   62 1   
    63   61   64 1   
    64   61   69 1   
    65   62   63 2   
    66   62   74 1   
    67   64   65 1   
    68   64   70 1   
    69   64   71 1   
    70   65   66 1   
    71   65   67 2   
    72   66   72 1   
    73   66   73 1   
    74   74   75 1   
    75   74   78 1   
    76   75   76 1   
    77   75   79 1   
    78   75   80 1   
    79   76   77 2   
    80   76   81 1   
    81   81   82 1   
    82   81   93 1   
    83   82   83 1   
    84   82   85 1   
    85   82   94 1   
    86   83   84 2   
    87   83  102 1   
    88   85   86 1   
    89   85   95 1   
    90   85   96 1   
    91   86   87 ar  
    92   86   88 ar  
    93   87   89 ar  
    94   87   97 1   
    95   88   90 ar  
    96   88   98 1   
    97   89   91 ar  
    98   89   99 1   
    99   90   91 ar  
   100   90  100 1   
   101   91   92 1   
   102   92  101 1   
   103  102  103 1   
   104  102  110 1   
   105  103  104 1   
   106  103  106 1   
   107  103  111 1   
   108  104  105 2   
   109  104  121 1   
   110  106  107 1   
   111  106  108 1   
   112  106  112 1   
   113  107  109 1   
   114  107  113 1   
   115  107  114 1   
   116  108  115 1   
   117  108  116 1   
   118  108  117 1   
   119  109  118 1   
   120  109  119 1   
   121  109  120 1   
   122  121  122 1   
   123  121  127 1   
   124  122  123 1   
   125  122  125 1   
   126  122  128 1   
   127  123  124 2   
   128  123  132 1   
   129  125  126 1   
   130  125  129 1   
   131  125  130 1   
   132  126  131 1   
   133  132  133 1   
   134  132  137 1   
   135  133  134 1   
   136  133  136 1   
   137  133  138 1   
   138  134  135 2   
   139  134  142 1   
   140  136  139 1   
   141  136  140 1   
   142  136  141 1   
   143  142  143 1   
   144  142  147 1   
   145  143  144 1   
   146  143  146 1   
   147  143  148 1   
   148  144  145 2   
   149  144  152 1   
   150  146  149 1   
   151  146  150 1   
   152  146  151 1   
   153  152  153 1   
   154  152  161 1   
   155  153  154 1   
   156  153  156 1   
   157  153  162 1   
   158  154  155 2   
   159  154  167 1   
   160  156  157 1   
   161  156  163 1   
   162  156  164 1   
   163  157  158 1   
   164  157  165 1   
   165  157  166 1   
   166  158  159 1   
   167  158  160 1   
   168  167  168 1   
   169  167  172 1   
   170  168  169 1   
   171  168  170 1   
   172  168  171 1   
   173  174  175 1   
   174  174  176 1   
   175  177  178 1   
   176  177  179 1   
@<TRIPOS>SUBSTRUCTURE
     1 MOL         1 TEMP              0 ****  ****    0 ROOT
