@<TRIPOS>MOLECULE
MOL
  176   174     1     0     0
SMALL
resp


@<TRIPOS>ATOM
      1 C1          0.6480    4.1440    6.4230 c3        1 MOL     -0.321058
      2 C2          0.6420    3.7800    4.9100 c         1 MOL      0.708590
      3 O1          1.6940    3.4180    4.3810 o         1 MOL     -0.578829
      4 H1          1.1140    5.1200    6.5600 hc        1 MOL      0.083271
      5 H2         -0.3770    4.1750    6.7930 hc        1 MOL      0.083271
      6 H3          1.2120    3.3920    6.9760 hc        1 MOL      0.083271
      7 N1         -0.5150    3.7480    4.2420 n         1 MOL     -0.621592
      8 C3         -0.7450    3.2980    2.8860 c3        1 MOL      0.141364
      9 C4         -1.2710    4.4480    1.9900 c         1 MOL      0.617423
     10 O2         -2.1450    5.2270    2.3700 o         1 MOL     -0.571033
     11 C5         -1.8770    2.2040    3.0910 c3        1 MOL     -0.106440
     12 C6         -2.3460    1.5670    1.7600 c         1 MOL      0.931560
     13 O3         -2.4340    2.2040    0.7060 o         1 MOL     -0.884807
     14 O4         -2.4800    0.3130    1.6660 o         1 MOL     -0.884807
     15 H4         -1.3420    3.9110    4.7960 hn        1 MOL      0.324303
     16 H5          0.1190    2.8810    2.3710 h1        1 MOL      0.034528
     17 H6         -2.7220    2.7890    3.4680 hc        1 MOL      0.014757
     18 H7         -1.6000    1.4200    3.7920 hc        1 MOL      0.014757
     19 N2         -0.6770    4.5570    0.8250 n         1 MOL     -0.407738
     20 C7         -0.7210    5.6830   -0.1430 c3        1 MOL     -0.201495
     21 C8         -1.8370    5.5690   -1.1770 c         1 MOL      0.679401
     22 O5         -1.9470    6.4680   -2.0010 o         1 MOL     -0.588200
     23 C9          0.6630    5.7600   -0.7890 c3        1 MOL     -0.063973
     24 C10         1.2120    4.5370   -1.4740 c3        1 MOL      0.031262
     25 C11         2.6260    4.7300   -1.9820 c3        1 MOL      0.006918
     26 C12         2.7450    5.8540   -3.1100 c3        1 MOL     -0.082350
     27 N3          4.0890    6.3770   -3.2690 n4        1 MOL     -0.262331
     28 H8         -0.1330    3.7560    0.5370 hn        1 MOL      0.275248
     29 H9         -0.9730    6.5780    0.4290 h1        1 MOL      0.159526
     30 H10         1.3190    6.1050    0.0200 hc        1 MOL      0.034194
     31 H11         0.6890    6.6270   -1.4600 hc        1 MOL      0.034194
     32 H12         0.5700    4.3000   -2.3190 hc        1 MOL      0.038776
     33 H13         1.1510    3.7350   -0.7350 hc        1 MOL      0.038776
     34 H14         2.8680    3.7590   -2.4040 hc        1 MOL      0.059895
     35 H15         3.3170    4.9430   -1.1610 hc        1 MOL      0.059895
     36 H16         2.1640    6.6530   -2.6410 hx        1 MOL      0.101960
     37 H17         2.3710    5.4840   -4.0640 hx        1 MOL      0.101960
     38 H18         4.4000    6.9180   -2.4730 hn        1 MOL      0.309339
     39 H19         4.7750    5.6330   -3.3520 hn        1 MOL      0.309339
     40 H20         4.1820    6.9440   -4.0930 hn        1 MOL      0.309339
     41 N4         -2.6640    4.4990   -1.1740 n         1 MOL     -0.600494
     42 C13        -3.8820    4.3600   -2.0590 c3        1 MOL      0.151573
     43 C14        -5.0870    3.7360   -1.3180 c         1 MOL      0.351334
     44 O6         -6.2270    3.8640   -1.7880 o         1 MOL     -0.517639
     45 C15        -3.4280    3.5050   -3.2150 c3        1 MOL     -0.222461
     46 C16        -2.9440    2.1790   -2.7470 c         1 MOL      0.926888
     47 O7         -3.7960    1.3410   -2.5110 o         1 MOL     -0.789111
     48 O8         -1.7880    1.8790   -2.6150 o         1 MOL     -0.789111
     49 H21        -2.3920    3.6920   -0.6370 hn        1 MOL      0.370612
     50 H22        -4.2620    5.3030   -2.4570 h1        1 MOL      0.109231
     51 H23        -2.5430    3.9830   -3.6260 hc        1 MOL      0.041895
     52 H24        -4.1710    3.4370   -4.0070 hc        1 MOL      0.041895
     53 N5         -4.9230    3.2610   -0.0720 n         1 MOL     -0.129024
     54 C17        -5.9850    2.7210    0.7870 c3        1 MOL     -0.178253
     55 C18        -6.6630    1.3810    0.4000 c         1 MOL      0.660912
     56 O9         -7.6680    1.0410    0.9370 o         1 MOL     -0.594382
     57 H25        -3.9990    3.3540    0.3390 hn        1 MOL      0.181521
     58 H26        -6.7530    3.4860    0.9370 h1        1 MOL      0.089125
     59 H27        -5.5040    2.5700    1.7500 h1        1 MOL      0.089125
     60 N6         -6.0200    0.5220   -0.4250 n         1 MOL     -0.384733
     61 C19        -6.6030   -0.7310   -0.9790 c3        1 MOL      0.038916
     62 C20        -6.6050   -1.9150   -0.0450 c         1 MOL      0.293204
     63 O10        -6.9900   -3.0170   -0.5490 o         1 MOL     -0.500795
     64 C21        -5.9340   -1.0520   -2.2920 c3        1 MOL     -0.427784
     65 C22        -4.5650   -1.7980   -2.0660 c         1 MOL      0.666647
     66 N7         -4.1970   -2.6180   -2.9830 n         1 MOL     -0.527051
     67 O11        -3.8350   -1.5430   -1.1000 o         1 MOL     -0.665213
     68 H28        -5.0980    0.7750   -0.7280 hn        1 MOL      0.178312
     69 H29        -7.6290   -0.5440   -1.2820 h1        1 MOL      0.162244
     70 H30        -5.7620   -0.1830   -2.9350 hc        1 MOL      0.162606
     71 H31        -6.6280   -1.5820   -2.9500 hc        1 MOL      0.162606
     72 H32        -4.8040   -2.7500   -3.7760 hn        1 MOL      0.302122
     73 H33        -3.3050   -3.0910   -2.9020 hn        1 MOL      0.302122
     74 N8         -6.2990   -1.7960    1.2380 n         1 MOL     -0.107386
     75 C23        -6.3760   -2.8700    2.2300 c3        1 MOL     -0.290987
     76 C24        -5.0270   -3.5760    2.5750 c         1 MOL      0.550069
     77 O12        -4.8370   -4.1280    3.7050 o         1 MOL     -0.556894
     78 H34        -6.1370   -0.8550    1.5770 hn        1 MOL      0.244204
     79 H35        -7.0670   -3.6260    1.8500 h1        1 MOL      0.146397
     80 H36        -6.6760   -2.3580    3.1390 h1        1 MOL      0.146397
     81 N9         -3.9920   -3.4240    1.7000 n         1 MOL     -0.378893
     82 C25        -2.5930   -3.9170    1.9990 c3        1 MOL      0.202760
     83 C26        -1.4510   -3.0720    1.4370 c         1 MOL      0.629838
     84 O13        -1.7020   -2.3100    0.5370 o         1 MOL     -0.654366
     85 C27        -2.4150   -5.3560    1.4270 c3        1 MOL     -0.235371
     86 C28        -2.5170   -5.4090   -0.0850 ca        1 MOL      0.015123
     87 C29        -1.3900   -5.3340   -0.9330 ca        1 MOL     -0.044864
     88 C30        -3.8280   -5.5730   -0.6830 ca        1 MOL     -0.044864
     89 C31        -1.4830   -5.5010   -2.3520 ca        1 MOL     -0.399833
     90 C32        -3.9190   -5.6830   -2.1000 ca        1 MOL     -0.399833
     91 C33        -2.7620   -5.7170   -2.9110 ca        1 MOL      0.405563
     92 O14        -2.9180   -5.7360   -4.2820 oh        1 MOL     -0.476291
     93 H37        -4.0830   -2.9660    0.8060 hn        1 MOL      0.309617
     94 H38        -2.4170   -3.9570    3.0670 h1        1 MOL      0.026151
     95 H39        -3.1660   -5.9660    1.9170 hc        1 MOL      0.075595
     96 H40        -1.4080   -5.6700    1.7190 hc        1 MOL      0.075595
     97 H41        -0.4700   -5.0760   -0.4460 ha        1 MOL      0.134818
     98 H42        -4.6820   -5.6830   -0.0370 ha        1 MOL      0.134818
     99 H43        -0.6070   -5.3550   -2.9640 ha        1 MOL      0.182844
    100 H44        -4.8740   -5.7940   -2.5970 ha        1 MOL      0.182844
    101 H45        -2.0230   -5.6050   -4.5870 ho        1 MOL      0.330164
    102 N10        -0.2380   -3.2520    1.9880 n         1 MOL     -0.586201
    103 C34         0.9890   -2.5410    1.6510 c3        1 MOL      0.110460
    104 C35         2.0860   -3.4980    1.1300 c         1 MOL      0.361906
    105 O15         2.0670   -4.6420    1.5100 o         1 MOL     -0.503872
    106 C36         1.5210   -1.6400    2.8330 c3        1 MOL      0.100550
    107 C37         1.7510   -2.2830    4.2270 c3        1 MOL     -0.284824
    108 C38         0.4360   -0.5130    3.0660 c3        1 MOL     -0.396366
    109 C39         3.1080   -2.9390    4.1320 c3        1 MOL      0.005399
    110 H46        -0.1670   -3.9550    2.7080 hn        1 MOL      0.352024
    111 H47         0.6820   -1.8300    0.8840 h1        1 MOL      0.137805
    112 H48         2.4120   -1.0980    2.5000 hc        1 MOL      0.016698
    113 H49         0.9330   -2.9510    4.5090 hc        1 MOL      0.091176
    114 H50         1.8430   -1.5510    5.0300 hc        1 MOL      0.091176
    115 H51         0.1680   -0.1850    2.0680 hc        1 MOL      0.133198
    116 H52        -0.4050   -1.0880    3.4570 hc        1 MOL      0.133198
    117 H53         0.8690    0.2660    3.7020 hc        1 MOL      0.133198
    118 H54         3.4570   -3.3560    5.0790 hc        1 MOL      0.012527
    119 H55         3.1750   -3.8200    3.4850 hc        1 MOL      0.012527
    120 H56         3.8910   -2.1890    4.0390 hc        1 MOL      0.012527
    121 N11         2.9580   -3.0020    0.2670 n         1 MOL     -0.225390
    122 C40         4.1430   -3.7360   -0.2780 c3        1 MOL     -0.049503
    123 C41         5.4860   -3.0200    0.1420 c         1 MOL      0.508645
    124 O16         5.4450   -1.8940    0.6910 o         1 MOL     -0.557188
    125 C42         3.9830   -3.7780   -1.8450 c3        1 MOL      0.093161
    126 O17         3.9510   -2.4630   -2.3480 oh        1 MOL     -0.561353
    127 H57         2.7780   -2.0750   -0.0840 hn        1 MOL      0.184288
    128 H58         4.1560   -4.7390    0.1510 h1        1 MOL      0.081989
    129 H59         3.0830   -4.3170   -2.1360 h1        1 MOL      0.049007
    130 H60         4.7740   -4.3760   -2.3010 h1        1 MOL      0.049007
    131 H61         3.0220   -2.2160   -2.2870 ho        1 MOL      0.408645
    132 N12         6.6230   -3.5980   -0.0870 n         1 MOL     -0.365686
    133 C43         7.9670   -2.9430    0.0460 c3        1 MOL      0.064941
    134 C44         8.1150   -1.5690   -0.5570 c         1 MOL      0.473610
    135 O18         8.6140   -0.6710    0.1000 o         1 MOL     -0.529631
    136 C45         9.0830   -3.7740   -0.6210 c3        1 MOL     -0.233649
    137 H62         6.5180   -4.5270   -0.4820 hn        1 MOL      0.259583
    138 H63         8.1670   -2.9310    1.1110 h1        1 MOL      0.110928
    139 H64         9.0230   -3.6380   -1.7020 hc        1 MOL      0.076536
    140 H65        10.0750   -3.4520   -0.3010 hc        1 MOL      0.076536
    141 H66         8.9930   -4.8550   -0.5080 hc        1 MOL      0.076536
    142 N13         7.4980   -1.2610   -1.6790 n         1 MOL     -0.302423
    143 C46         7.5940   -0.0110   -2.4490 c3        1 MOL      0.116306
    144 C47         6.6850    1.0480   -1.7540 c         1 MOL      0.398429
    145 O19         6.9570    2.2660   -1.7270 o         1 MOL     -0.559803
    146 C48         7.3620   -0.2710   -3.9440 c3        1 MOL     -0.292536
    147 H67         6.9770   -2.0350   -2.0720 hn        1 MOL      0.237506
    148 H68         8.5960    0.4110   -2.4210 h1        1 MOL      0.093866
    149 H69         8.1180   -1.0090   -4.2180 hc        1 MOL      0.086786
    150 H70         6.3340   -0.5700   -4.1410 hc        1 MOL      0.086786
    151 H71         7.4630    0.6550   -4.5190 hc        1 MOL      0.086786
    152 N14         5.6120    0.6470   -1.0360 n         1 MOL     -0.234775
    153 C49         4.8320    1.5300   -0.1250 c3        1 MOL     -0.054177
    154 C50         5.6060    1.7810    1.2310 c         1 MOL      0.556165
    155 O20         5.4150    2.8320    1.7890 o         1 MOL     -0.540354
    156 C51         3.4080    1.0560    0.0770 c3        1 MOL     -0.056771
    157 C52         2.5750    0.7650   -1.1650 c3        1 MOL      0.090293
    158 C53         1.1520    0.4360   -0.7630 c         1 MOL      0.713051
    159 O21         0.7330   -0.7090   -1.1060 o         1 MOL     -0.791897
    160 O22         0.4060    1.2610   -0.1510 o         1 MOL     -0.791897
    161 H72         5.4510   -0.3550   -1.0930 hn        1 MOL      0.171119
    162 H73         4.6360    2.5370   -0.5160 h1        1 MOL      0.019769
    163 H74         2.8900    1.8340    0.6410 hc        1 MOL      0.058488
    164 H75         3.4520    0.1150    0.6220 hc        1 MOL      0.058488
    165 H76         2.9960   -0.1180   -1.6510 hc        1 MOL     -0.063864
    166 H77         2.5450    1.6350   -1.8170 hc        1 MOL     -0.063864
    167 N15         6.2690    0.7400    1.7940 n         1 MOL     -0.229487
    168 C54         7.0770    0.9920    3.0120 c3        1 MOL     -0.271702
    169 H78         7.3490    2.0470    3.0540 h1        1 MOL      0.114199
    170 H79         6.4950    0.7310    3.8960 h1        1 MOL      0.114199
    171 H80         7.9820    0.3850    2.9800 h1        1 MOL      0.114199
    172 H81         6.0140   -0.1910    1.5080 hn        1 MOL      0.265240
    173 Ca1        -1.9180    0.0540   -0.7870 Ca        1 MOL      1.815734
    174 O23        -1.6100   -0.8850   -3.4840 oh        1 MOL     -0.856920
    175 H82        -1.1000   -0.1980   -3.9020 ho        1 MOL      0.408210
    176 H83        -1.2750   -1.6960   -3.8700 ho        1 MOL      0.408210
@<TRIPOS>BOND
     1    1    2 1   
     2    1    4 1   
     3    1    5 1   
     4    1    6 1   
     5    2    3 2   
     6    2    7 1   
     7    7    8 1   
     8    7   15 1   
     9    8    9 1   
    10    8   11 1   
    11    8   16 1   
    12    9   10 2   
    13    9   19 1   
    14   11   12 1   
    15   11   17 1   
    16   11   18 1   
    17   12   13 1   
    18   12   14 1   
    19   19   20 1   
    20   19   28 1   
    21   20   21 1   
    22   20   23 1   
    23   20   29 1   
    24   21   22 2   
    25   21   41 1   
    26   23   24 1   
    27   23   30 1   
    28   23   31 1   
    29   24   25 1   
    30   24   32 1   
    31   24   33 1   
    32   25   26 1   
    33   25   34 1   
    34   25   35 1   
    35   26   27 1   
    36   26   36 1   
    37   26   37 1   
    38   27   38 1   
    39   27   39 1   
    40   27   40 1   
    41   41   42 1   
    42   41   49 1   
    43   42   43 1   
    44   42   45 1   
    45   42   50 1   
    46   43   44 2   
    47   43   53 1   
    48   45   46 1   
    49   45   51 1   
    50   45   52 1   
    51   46   47 1   
    52   46   48 1   
    53   53   54 1   
    54   53   57 1   
    55   54   55 1   
    56   54   58 1   
    57   54   59 1   
    58   55   56 2   
    59   55   60 1   
    60   60   61 1   
    61   60   68 1   
    62   61   62 1   
    63   61   64 1   
    64   61   69 1   
    65   62   63 2   
    66   62   74 1   
    67   64   65 1   
    68   64   70 1   
    69   64   71 1   
    70   65   66 1   
    71   65   67 2   
    72   66   72 1   
    73   66   73 1   
    74   74   75 1   
    75   74   78 1   
    76   75   76 1   
    77   75   79 1   
    78   75   80 1   
    79   76   77 2   
    80   76   81 1   
    81   81   82 1   
    82   81   93 1   
    83   82   83 1   
    84   82   85 1   
    85   82   94 1   
    86   83   84 2   
    87   83  102 1   
    88   85   86 1   
    89   85   95 1   
    90   85   96 1   
    91   86   87 ar  
    92   86   88 ar  
    93   87   89 ar  
    94   87   97 1   
    95   88   90 ar  
    96   88   98 1   
    97   89   91 ar  
    98   89   99 1   
    99   90   91 ar  
   100   90  100 1   
   101   91   92 1   
   102   92  101 1   
   103  102  103 1   
   104  102  110 1   
   105  103  104 1   
   106  103  106 1   
   107  103  111 1   
   108  104  105 2   
   109  104  121 1   
   110  106  107 1   
   111  106  108 1   
   112  106  112 1   
   113  107  109 1   
   114  107  113 1   
   115  107  114 1   
   116  108  115 1   
   117  108  116 1   
   118  108  117 1   
   119  109  118 1   
   120  109  119 1   
   121  109  120 1   
   122  121  122 1   
   123  121  127 1   
   124  122  123 1   
   125  122  125 1   
   126  122  128 1   
   127  123  124 2   
   128  123  132 1   
   129  125  126 1   
   130  125  129 1   
   131  125  130 1   
   132  126  131 1   
   133  132  133 1   
   134  132  137 1   
   135  133  134 1   
   136  133  136 1   
   137  133  138 1   
   138  134  135 2   
   139  134  142 1   
   140  136  139 1   
   141  136  140 1   
   142  136  141 1   
   143  142  143 1   
   144  142  147 1   
   145  143  144 1   
   146  143  146 1   
   147  143  148 1   
   148  144  145 2   
   149  144  152 1   
   150  146  149 1   
   151  146  150 1   
   152  146  151 1   
   153  152  153 1   
   154  152  161 1   
   155  153  154 1   
   156  153  156 1   
   157  153  162 1   
   158  154  155 2   
   159  154  167 1   
   160  156  157 1   
   161  156  163 1   
   162  156  164 1   
   163  157  158 1   
   164  157  165 1   
   165  157  166 1   
   166  158  159 1   
   167  158  160 1   
   168  167  168 1   
   169  167  172 1   
   170  168  169 1   
   171  168  170 1   
   172  168  171 1   
   173  174  175 1   
   174  174  176 1   
@<TRIPOS>SUBSTRUCTURE
     1 MOL         1 TEMP              0 ****  ****    0 ROOT
