@<TRIPOS>MOLECULE
MOL
  189   185     1     0     0
SMALL
resp


@<TRIPOS>ATOM
      1 C1          0.2020    1.2500    6.4070 c3        1 MOL     -0.325478
      2 C2         -0.0890    1.4240    4.9550 c         1 MOL      0.774401
      3 O1          0.7490    1.8760    4.1500 o         1 MOL     -0.631832
      4 H1          0.9350    0.4540    6.5370 hc        1 MOL      0.080141
      5 H2          0.6010    2.1800    6.8120 hc        1 MOL      0.080141
      6 H3         -0.7160    0.9880    6.9340 hc        1 MOL      0.080141
      7 N1         -1.3120    1.0500    4.5620 n         1 MOL     -0.612789
      8 C3         -1.8390    1.1110    3.2010 c3        1 MOL      0.130860
      9 C4         -1.8600    2.6480    2.7920 c         1 MOL      0.515318
     10 O2         -2.3570    3.4480    3.6040 o         1 MOL     -0.579502
     11 C5         -3.2380    0.4840    3.1690 c3        1 MOL     -0.236797
     12 C6         -3.8450    0.3790    1.7490 c         1 MOL      0.798811
     13 O3         -3.1610    0.6140    0.7600 o         1 MOL     -0.682677
     14 O4         -4.9490   -0.1690    1.6130 o         1 MOL     -0.682677
     15 H4         -1.9800    0.7470    5.2490 hn        1 MOL      0.333422
     16 H5         -1.1710    0.6780    2.4680 h1        1 MOL      0.060884
     17 H6         -3.9540    1.0420    3.7770 hc        1 MOL      0.061121
     18 H7         -3.2990   -0.5010    3.6440 hc        1 MOL      0.061121
     19 N2         -1.3040    3.0320    1.6450 n         1 MOL     -0.219382
     20 C7         -1.2660    4.3830    1.1130 c3        1 MOL      0.133526
     21 C8         -2.5080    4.6870    0.2540 c         1 MOL      0.544072
     22 O5         -3.1340    5.6230    0.5920 o         1 MOL     -0.584186
     23 C9          0.0600    4.5380    0.2930 c3        1 MOL      0.061808
     24 C10         1.2750    4.9640    1.1850 c3        1 MOL     -0.061663
     25 C11         1.1570    6.2860    2.0210 c3        1 MOL     -0.168105
     26 C12         1.4850    7.4840    1.1110 c3        1 MOL      0.147966
     27 N3          1.6380    8.7770    1.8970 n4        1 MOL     -0.426781
     28 H8         -1.0530    2.2610    1.0420 hn        1 MOL      0.082262
     29 H9         -1.2370    5.0810    1.9460 h1        1 MOL      0.020760
     30 H10        -0.0100    5.4270   -0.3310 hc        1 MOL     -0.032160
     31 H11         0.2040    3.6880   -0.3800 hc        1 MOL     -0.032160
     32 H12         2.1460    5.0890    0.5390 hc        1 MOL      0.057784
     33 H13         1.4510    4.1310    1.8700 hc        1 MOL      0.057784
     34 H14         1.8730    6.3260    2.8370 hc        1 MOL      0.088185
     35 H15         0.1220    6.3590    2.3500 hc        1 MOL      0.088185
     36 H16         0.6250    7.6650    0.4600 hx        1 MOL      0.044600
     37 H17         2.3930    7.3380    0.5200 hx        1 MOL      0.044600
     38 H18         0.8250    8.8950    2.4720 hn        1 MOL      0.339123
     39 H19         2.4350    8.6850    2.5190 hn        1 MOL      0.339123
     40 H20         1.6970    9.5880    1.3010 hn        1 MOL      0.339123
     41 N4         -2.7770    3.9450   -0.8110 n         1 MOL     -0.495004
     42 C13        -3.9760    4.3230   -1.6310 c3        1 MOL      0.243850
     43 C14        -5.3400    3.7680   -1.1450 c         1 MOL      0.370359
     44 O6         -6.3220    4.1990   -1.5990 o         1 MOL     -0.511365
     45 C15        -3.6570    4.0120   -3.0980 c3        1 MOL     -0.515423
     46 C16        -2.5820    2.9210   -3.2360 c         1 MOL      0.915782
     47 O7         -2.6760    1.8630   -2.6130 o         1 MOL     -0.764844
     48 O8         -1.5700    3.1350   -3.9080 o         1 MOL     -0.764844
     49 H21        -2.3100    3.0540   -0.9180 hn        1 MOL      0.284749
     50 H22        -4.2060    5.3840   -1.5750 h1        1 MOL      0.071911
     51 H23        -3.4040    4.9510   -3.5940 hc        1 MOL      0.126046
     52 H24        -4.5680    3.6070   -3.5310 hc        1 MOL      0.126046
     53 N5         -5.3600    2.8010   -0.2320 n         1 MOL     -0.063874
     54 C17        -6.5530    2.3540    0.4350 c3        1 MOL     -0.103898
     55 C18        -7.2950    1.2500   -0.4010 c         1 MOL      0.569007
     56 O9         -8.4970    1.3200   -0.6770 o         1 MOL     -0.588236
     57 H25        -4.4780    2.3920    0.0220 hn        1 MOL      0.076966
     58 H26        -7.2860    3.1240    0.6760 h1        1 MOL      0.060015
     59 H27        -6.1950    1.9190    1.3690 h1        1 MOL      0.060015
     60 N6         -6.5580    0.1950   -0.8170 n         1 MOL     -0.211099
     61 C19        -7.0000   -0.9440   -1.6420 c3        1 MOL      0.033054
     62 C20        -7.1210   -2.2690   -0.8170 c         1 MOL      0.324046
     63 O10        -7.7470   -3.2230   -1.3580 o         1 MOL     -0.519131
     64 C21        -6.1410   -1.0530   -2.9390 c3        1 MOL     -0.252631
     65 C22        -4.6060   -1.1070   -2.6280 c         1 MOL      0.770048
     66 O11        -3.8040   -0.6190   -3.3760 o         1 MOL     -0.711693
     67 O12        -4.3000   -1.7010   -1.5590 o         1 MOL     -0.711693
     68 H28        -5.6140    0.1950   -0.4440 hn        1 MOL      0.012834
     69 H29        -7.9860   -0.8180   -2.0820 h1        1 MOL      0.123891
     70 H30        -6.3770   -0.2370   -3.6080 hc        1 MOL      0.073309
     71 H31        -6.3670   -2.0170   -3.4080 hc        1 MOL      0.073309
     72 N7         -6.7940   -2.2900    0.4700 n         1 MOL     -0.187480
     73 C23        -6.6160   -3.4650    1.3120 c3        1 MOL     -0.190683
     74 C24        -5.3680   -4.2950    1.0480 c         1 MOL      0.511929
     75 O13        -5.3340   -5.4310    1.5170 o         1 MOL     -0.570665
     76 H32        -6.3980   -1.4720    0.8940 hn        1 MOL      0.218492
     77 H33        -7.4540   -4.1310    1.1540 h1        1 MOL      0.111288
     78 H34        -6.6270   -3.1180    2.3470 h1        1 MOL      0.111288
     79 N8         -4.3740   -3.8180    0.3090 n         1 MOL     -0.187349
     80 C25        -3.1250   -4.5280    0.1480 c3        1 MOL     -0.221831
     81 C26        -1.9630   -3.6130    0.3370 c         1 MOL      0.690216
     82 O14        -2.0460   -2.4010    0.1840 o         1 MOL     -0.660713
     83 C27        -3.0630   -5.0580   -1.2960 c3        1 MOL      0.559519
     84 C28        -4.0460   -6.2330   -1.4250 c3        1 MOL     -0.503567
     85 O15        -3.3230   -4.1620   -2.2560 oh        1 MOL     -0.638215
     86 H35        -4.4010   -2.8760   -0.0380 hn        1 MOL      0.256012
     87 H36        -3.0910   -5.3820    0.8290 h1        1 MOL      0.101966
     88 H37        -2.0380   -5.4450   -1.3420 h1        1 MOL     -0.050708
     89 H38        -4.0700   -3.6000   -2.0250 ho        1 MOL      0.400004
     90 H39        -5.0540   -5.8160   -1.4520 hc        1 MOL      0.121661
     91 H40        -3.7440   -6.6760   -2.3810 hc        1 MOL      0.121661
     92 H41        -3.8960   -6.8860   -0.5670 hc        1 MOL      0.121661
     93 N9         -0.8610   -4.2030    0.9010 n         1 MOL     -0.649395
     94 C29         0.3880   -3.4970    1.1760 c3        1 MOL     -0.004325
     95 C30         1.5330   -4.0390    0.3370 c         1 MOL      0.548224
     96 O16         1.8740   -5.2570    0.4080 o         1 MOL     -0.559097
     97 C31         0.8330   -3.6040    2.7010 c3        1 MOL      0.245841
     98 C32        -0.2790   -3.6120    3.7090 c3        1 MOL      0.190453
     99 C33         1.6430   -2.3820    3.0200 c3        1 MOL     -0.570128
    100 C34         0.0830   -3.7690    5.1970 c3        1 MOL     -0.298997
    101 H42        -0.9440   -5.1800    1.1390 hn        1 MOL      0.323412
    102 H43         0.1680   -2.4650    0.9240 h1        1 MOL      0.152852
    103 H44         1.4880   -4.4720    2.8010 hc        1 MOL     -0.025236
    104 H45        -0.8800   -4.4990    3.5470 hc        1 MOL     -0.020654
    105 H46        -0.9720   -2.7980    3.5040 hc        1 MOL     -0.020654
    106 H47         2.4630   -2.2220    2.3220 hc        1 MOL      0.107443
    107 H48         1.0260   -1.4870    3.1060 hc        1 MOL      0.107443
    108 H49         2.0600   -2.4790    4.0220 hc        1 MOL      0.107443
    109 H50         0.7030   -2.9880    5.6260 hc        1 MOL      0.068238
    110 H51        -0.8430   -3.7380    5.7890 hc        1 MOL      0.068238
    111 H52         0.5910   -4.7010    5.4180 hc        1 MOL      0.068238
    112 N10         2.1470   -3.1390   -0.4100 n         1 MOL     -0.353347
    113 C35         3.4790   -3.3390   -1.0260 c3        1 MOL      0.056170
    114 C36         4.7800   -2.9520   -0.1990 c         1 MOL      0.292398
    115 O17         4.7060   -2.2770    0.8300 o         1 MOL     -0.291026
    116 C37         3.4790   -2.5680   -2.3600 c3        1 MOL      0.185645
    117 C38         2.3380   -3.0360   -3.2670 c3        1 MOL     -0.287252
    118 O18         3.2170   -1.2270   -2.0740 oh        1 MOL     -0.605332
    119 H53         1.7990   -2.1950   -0.3360 hn        1 MOL      0.224033
    120 H54         3.6430   -4.3870   -1.2540 h1        1 MOL      0.042442
    121 H55         4.4320   -2.6560   -2.8880 h1        1 MOL      0.038811
    122 H56         2.3060   -1.1010   -1.7880 ho        1 MOL      0.384018
    123 H57         2.3380   -4.0830   -3.5780 hc        1 MOL      0.088423
    124 H58         1.4140   -2.7830   -2.7610 hc        1 MOL      0.088423
    125 H59         2.3690   -2.5160   -4.2230 hc        1 MOL      0.088423
    126 N11         5.8740   -3.3410   -0.7520 n         1 MOL     -0.143874
    127 C39         7.1760   -2.9150   -0.2440 c3        1 MOL     -0.440812
    128 C40         7.4150   -1.4370   -0.3210 c         1 MOL      0.488167
    129 O19         8.1480   -0.9060    0.5270 o         1 MOL     -0.485918
    130 C41         8.2830   -3.7370   -0.9420 c3        1 MOL      0.420572
    131 C42         8.3030   -5.2160   -0.6740 c3        1 MOL     -0.420220
    132 O20         8.2330   -3.6710   -2.3950 oh        1 MOL     -0.661178
    133 H60         5.8390   -3.9700   -1.5370 hn        1 MOL      0.269295
    134 H61         7.3660   -3.1620    0.8020 h1        1 MOL      0.209309
    135 H62         9.2510   -3.3020   -0.6860 h1        1 MOL      0.034441
    136 H63         9.1000   -3.4700   -2.7680 ho        1 MOL      0.412672
    137 H64         8.3170   -5.4350    0.3920 hc        1 MOL      0.119801
    138 H65         7.5390   -5.7970   -1.1840 hc        1 MOL      0.119801
    139 H66         9.2520   -5.5410   -1.0810 hc        1 MOL      0.119801
    140 N12         6.7620   -0.6280   -1.2050 n         1 MOL     -0.377007
    141 C43         6.7680    0.8760   -1.1680 c3        1 MOL     -0.032018
    142 C44         6.0140    1.3300    0.0730 c         1 MOL      0.297872
    143 O21         6.4570    2.2770    0.7340 o         1 MOL     -0.508863
    144 C45         6.1850    1.3370   -2.5370 c3        1 MOL      0.005321
    145 C46         6.2400    2.8940   -2.7170 c3        1 MOL      0.037442
    146 C47         6.3270    3.2570   -4.1720 c3        1 MOL      0.027691
    147 C48         6.3940    4.7630   -4.4210 c3        1 MOL     -0.067424
    148 N13         5.0810    5.2970   -4.2760 n4        1 MOL     -0.406079
    149 H67         6.1670   -1.1070   -1.8740 hn        1 MOL      0.241167
    150 H68         7.8050    1.1750   -1.0560 h1        1 MOL      0.132913
    151 H69         5.1410    1.0520   -2.6880 hc        1 MOL      0.014798
    152 H70         6.7630    0.7860   -3.2840 hc        1 MOL      0.014798
    153 H71         7.1120    3.2620   -2.1660 hc        1 MOL     -0.004055
    154 H72         5.3580    3.2600   -2.1890 hc        1 MOL     -0.004055
    155 H73         5.4760    2.8990   -4.7480 hc        1 MOL      0.030680
    156 H74         7.1820    2.8000   -4.6720 hc        1 MOL      0.030680
    157 H75         6.7420    5.0700   -5.4090 hx        1 MOL      0.117815
    158 H76         7.0860    5.1380   -3.6690 hx        1 MOL      0.117815
    159 H77         5.0830    6.3040   -4.3890 hn        1 MOL      0.347443
    160 H78         4.5480    4.9410   -5.0600 hn        1 MOL      0.347443
    161 H79         4.6130    4.9010   -3.4660 hn        1 MOL      0.347443
    162 N14         4.8600    0.7490    0.4000 n         1 MOL     -0.040420
    163 C49         4.0290    1.2910    1.5020 c3        1 MOL     -0.004623
    164 C50         4.6410    0.9060    2.8680 c         1 MOL      0.396289
    165 O22         4.6320    1.7750    3.7210 o         1 MOL     -0.520148
    166 C51         2.7310    0.6150    1.2670 c3        1 MOL      0.028394
    167 C52         2.0290    1.3090    0.0530 c3        1 MOL      0.240157
    168 C53         0.7640    0.5840   -0.3190 c         1 MOL      0.646678
    169 O23         0.8120   -0.6360   -0.6690 o         1 MOL     -0.693120
    170 O24        -0.3370    1.2080   -0.2540 o         1 MOL     -0.693120
    171 H80         4.4540    0.0190   -0.1620 hn        1 MOL      0.297133
    172 H81         3.8120    2.3440    1.3740 h1        1 MOL      0.010436
    173 H82         2.0090    0.8030    2.0630 hc        1 MOL      0.041498
    174 H83         2.8320   -0.4630    1.1120 hc        1 MOL      0.041498
    175 H84         2.7020    1.3270   -0.8100 hc        1 MOL     -0.144547
    176 H85         1.8140    2.3140    0.4270 hc        1 MOL     -0.144547
    177 N15         5.1910   -0.3160    2.9120 n         1 MOL     -0.055410
    178 C54         5.9630   -0.7520    4.1390 c3        1 MOL     -0.438277
    179 H86         6.5590   -1.6330    3.8990 h1        1 MOL      0.155693
    180 H87         6.6220    0.0540    4.4600 h1        1 MOL      0.155693
    181 H88         5.2650   -0.9930    4.9410 h1        1 MOL      0.155693
    182 H89         5.0060   -0.8810    2.1000 hn        1 MOL      0.071431
    183 Ca1        -1.9720   -0.3320   -1.5440 Ca        1 MOL      1.780449
    184 O25        -1.2600   -2.5790   -2.9830 oh        1 MOL     -0.871354
    185 H90        -0.8100   -2.9080   -3.7600 ho        1 MOL      0.401493
    186 H91        -2.0540   -3.0990   -2.9280 ho        1 MOL      0.401493
    187 O26        -0.5400    0.4230   -3.7640 oh        1 MOL     -0.871354
    188 H92        -0.9110    1.3010   -3.8200 ho        1 MOL      0.401493
    189 H93        -0.0850    0.3000   -4.6020 ho        1 MOL      0.401493
@<TRIPOS>BOND
     1    1    2 1   
     2    1    4 1   
     3    1    5 1   
     4    1    6 1   
     5    2    3 2   
     6    2    7 1   
     7    7    8 1   
     8    7   15 1   
     9    8    9 1   
    10    8   11 1   
    11    8   16 1   
    12    9   10 2   
    13    9   19 1   
    14   11   12 1   
    15   11   17 1   
    16   11   18 1   
    17   12   13 1   
    18   12   14 1   
    19   19   20 1   
    20   19   28 1   
    21   20   21 1   
    22   20   23 1   
    23   20   29 1   
    24   21   22 2   
    25   21   41 1   
    26   23   24 1   
    27   23   30 1   
    28   23   31 1   
    29   24   25 1   
    30   24   32 1   
    31   24   33 1   
    32   25   26 1   
    33   25   34 1   
    34   25   35 1   
    35   26   27 1   
    36   26   36 1   
    37   26   37 1   
    38   27   38 1   
    39   27   39 1   
    40   27   40 1   
    41   41   42 1   
    42   41   49 1   
    43   42   43 1   
    44   42   45 1   
    45   42   50 1   
    46   43   44 2   
    47   43   53 1   
    48   45   46 1   
    49   45   51 1   
    50   45   52 1   
    51   46   47 1   
    52   46   48 1   
    53   53   54 1   
    54   53   57 1   
    55   54   55 1   
    56   54   58 1   
    57   54   59 1   
    58   55   56 2   
    59   55   60 1   
    60   60   61 1   
    61   60   68 1   
    62   61   62 1   
    63   61   64 1   
    64   61   69 1   
    65   62   63 2   
    66   62   72 1   
    67   64   65 1   
    68   64   70 1   
    69   64   71 1   
    70   65   66 1   
    71   65   67 1   
    72   72   73 1   
    73   72   76 1   
    74   73   74 1   
    75   73   77 1   
    76   73   78 1   
    77   74   75 2   
    78   74   79 1   
    79   79   80 1   
    80   79   86 1   
    81   80   81 1   
    82   80   83 1   
    83   80   87 1   
    84   81   82 2   
    85   81   93 1   
    86   83   84 1   
    87   83   85 1   
    88   83   88 1   
    89   84   90 1   
    90   84   91 1   
    91   84   92 1   
    92   85   89 1   
    93   93   94 1   
    94   93  101 1   
    95   94   95 1   
    96   94   97 1   
    97   94  102 1   
    98   95   96 2   
    99   95  112 1   
   100   97   98 1   
   101   97   99 1   
   102   97  103 1   
   103   98  100 1   
   104   98  104 1   
   105   98  105 1   
   106   99  106 1   
   107   99  107 1   
   108   99  108 1   
   109  100  109 1   
   110  100  110 1   
   111  100  111 1   
   112  112  113 1   
   113  112  119 1   
   114  113  114 1   
   115  113  116 1   
   116  113  120 1   
   117  114  115 2   
   118  114  126 1   
   119  116  117 1   
   120  116  118 1   
   121  116  121 1   
   122  117  123 1   
   123  117  124 1   
   124  117  125 1   
   125  118  122 1   
   126  126  127 1   
   127  126  133 1   
   128  127  128 1   
   129  127  130 1   
   130  127  134 1   
   131  128  129 2   
   132  128  140 1   
   133  130  131 1   
   134  130  132 1   
   135  130  135 1   
   136  131  137 1   
   137  131  138 1   
   138  131  139 1   
   139  132  136 1   
   140  140  141 1   
   141  140  149 1   
   142  141  142 1   
   143  141  144 1   
   144  141  150 1   
   145  142  143 2   
   146  142  162 1   
   147  144  145 1   
   148  144  151 1   
   149  144  152 1   
   150  145  146 1   
   151  145  153 1   
   152  145  154 1   
   153  146  147 1   
   154  146  155 1   
   155  146  156 1   
   156  147  148 1   
   157  147  157 1   
   158  147  158 1   
   159  148  159 1   
   160  148  160 1   
   161  148  161 1   
   162  162  163 1   
   163  162  171 1   
   164  163  164 1   
   165  163  166 1   
   166  163  172 1   
   167  164  165 2   
   168  164  177 1   
   169  166  167 1   
   170  166  173 1   
   171  166  174 1   
   172  167  168 1   
   173  167  175 1   
   174  167  176 1   
   175  168  169 1   
   176  168  170 1   
   177  177  178 1   
   178  177  182 1   
   179  178  179 1   
   180  178  180 1   
   181  178  181 1   
   182  184  185 1   
   183  184  186 1   
   184  187  188 1   
   185  187  189 1   
@<TRIPOS>SUBSTRUCTURE
     1 MOL         1 TEMP              0 ****  ****    0 ROOT
