@<TRIPOS>MOLECULE
MOL
  189   185     1     0     0
SMALL
resp


@<TRIPOS>ATOM
      1 C1         -0.0640    0.7880    6.5580 c3        1 MOL     -0.389798
      2 C2         -0.3760    0.6890    5.0610 c         1 MOL      0.747616
      3 O1          0.4700    1.1320    4.2570 o         1 MOL     -0.650615
      4 H1          0.4530    1.7270    6.7590 hc        1 MOL      0.103274
      5 H2         -0.9940    0.7580    7.1260 hc        1 MOL      0.103274
      6 H3          0.5710   -0.0470    6.8530 hc        1 MOL      0.103274
      7 N1         -1.6100    0.3660    4.6460 n         1 MOL     -0.616985
      8 C3         -2.1160    0.5970    3.2400 c3        1 MOL      0.093768
      9 C4         -2.3650    2.0520    3.1010 c         1 MOL      0.537613
     10 O2         -3.2730    2.5980    3.7410 o         1 MOL     -0.543671
     11 C5         -3.4560   -0.1980    3.0000 c3        1 MOL     -0.220954
     12 C6         -4.0560    0.1720    1.6370 c         1 MOL      0.606203
     13 O3         -5.2600    0.6210    1.5910 o         1 MOL     -0.588825
     14 O4         -3.2870    0.1300    0.6140 o         1 MOL     -0.588825
     15 H4         -2.2910    0.0430    5.3200 hn        1 MOL      0.329580
     16 H5         -1.3560    0.1640    2.5900 h1        1 MOL      0.052885
     17 H6         -4.1920    0.0660    3.7640 hc        1 MOL      0.062686
     18 H7         -3.2730   -1.2590    2.8810 hc        1 MOL      0.062686
     19 N2         -1.5290    2.7120    2.2580 n         1 MOL     -0.294682
     20 C7         -1.4710    4.1360    2.1390 c3        1 MOL     -0.112688
     21 C8         -2.3790    4.6910    1.0240 c         1 MOL      0.604273
     22 O5         -2.5960    5.8380    1.1390 o         1 MOL     -0.609653
     23 C9          0.0350    4.4570    1.9550 c3        1 MOL     -0.102112
     24 C10         0.2950    5.9640    1.6250 c3        1 MOL      0.117032
     25 C11         1.7690    6.3360    1.5660 c3        1 MOL     -0.370152
     26 C12         1.8940    7.8690    1.2620 c3        1 MOL     -0.049257
     27 N3          1.7490    8.2460   -0.2090 n4        1 MOL     -0.347516
     28 H8         -0.8770    2.1420    1.7420 hn        1 MOL      0.387874
     29 H9         -1.7210    4.6820    3.0540 h1        1 MOL      0.099141
     30 H10         0.5070    3.8900    1.1500 hc        1 MOL      0.066033
     31 H11         0.5170    4.1180    2.8650 hc        1 MOL      0.066033
     32 H12        -0.1360    6.6300    2.3710 hc        1 MOL      0.033098
     33 H13        -0.2240    6.2180    0.7070 hc        1 MOL      0.033098
     34 H14         2.3530    5.7130    0.8820 hc        1 MOL      0.131020
     35 H15         2.1390    6.2700    2.5880 hc        1 MOL      0.131020
     36 H16         2.8780    8.1840    1.5910 hx        1 MOL      0.129773
     37 H17         1.0740    8.3470    1.7830 hx        1 MOL      0.129773
     38 H18         2.4290    7.6860   -0.6840 hn        1 MOL      0.324535
     39 H19         0.8340    7.9040   -0.4540 hn        1 MOL      0.324535
     40 H20         1.9730    9.2110   -0.3980 hn        1 MOL      0.324535
     41 N4         -2.9190    3.8870    0.1090 n         1 MOL     -0.296580
     42 C13        -3.7190    4.4040   -1.0030 c3        1 MOL      0.028087
     43 C14        -5.1600    3.7990   -1.1230 c         1 MOL      0.435087
     44 O6         -5.7700    3.8970   -2.2050 o         1 MOL     -0.473257
     45 C15        -2.9070    4.4630   -2.3400 c3        1 MOL     -0.279506
     46 C16        -2.1880    3.2010   -2.6610 c         1 MOL      0.947556
     47 O7         -1.1360    3.2810   -3.1830 o         1 MOL     -0.763198
     48 O8         -2.5810    2.1150   -2.1440 o         1 MOL     -0.763198
     49 H21        -2.5820    2.9350   -0.0130 hn        1 MOL      0.118385
     50 H22        -4.0290    5.4220   -0.7560 h1        1 MOL      0.088613
     51 H23        -2.1830    5.2610   -2.1590 hc        1 MOL      0.046986
     52 H24        -3.5250    4.7400   -3.1900 hc        1 MOL      0.046986
     53 N5         -5.7650    3.2140   -0.0610 n         1 MOL     -0.318742
     54 C17        -7.1970    2.8250    0.0010 c3        1 MOL     -0.123156
     55 C18        -7.5740    1.7550   -0.9870 c         1 MOL      0.441342
     56 O9         -8.5210    1.8550   -1.7950 o         1 MOL     -0.568049
     57 H25        -5.1540    3.0150    0.7240 hn        1 MOL      0.246921
     58 H26        -7.7860    3.6860   -0.3080 h1        1 MOL      0.102639
     59 H27        -7.5330    2.5370    1.0050 h1        1 MOL      0.102639
     60 N6         -6.8610    0.6780   -1.1230 n         1 MOL     -0.135617
     61 C19        -7.0290   -0.5290   -2.0530 c3        1 MOL      0.124509
     62 C20        -7.0680   -1.8000   -1.2620 c         1 MOL      0.287069
     63 O10        -7.5670   -2.8260   -1.7540 o         1 MOL     -0.480629
     64 C21        -6.0860   -0.5210   -3.2170 c3        1 MOL     -0.329497
     65 C22        -4.6500   -0.5880   -2.7990 c         1 MOL      0.795499
     66 O11        -4.3820   -1.2420   -1.7380 o         1 MOL     -0.686456
     67 O12        -3.7590   -0.1080   -3.4630 o         1 MOL     -0.686456
     68 H28        -5.9920    0.6630   -0.6060 hn        1 MOL      0.131183
     69 H29        -7.9990   -0.4120   -2.5300 h1        1 MOL      0.085305
     70 H30        -6.3160    0.4150   -3.7340 hc        1 MOL      0.106466
     71 H31        -6.3330   -1.4290   -3.7690 hc        1 MOL      0.106466
     72 N7         -6.4970   -1.7340   -0.0140 n         1 MOL     -0.131649
     73 C23        -6.3180   -2.8600    0.9540 c3        1 MOL      0.045337
     74 C24        -5.4150   -4.0100    0.5490 c         1 MOL      0.476768
     75 O13        -5.7680   -5.1630    0.7190 o         1 MOL     -0.542112
     76 H32        -6.1210   -0.8110    0.1870 hn        1 MOL      0.022132
     77 H33        -7.2800   -3.3020    1.2220 h1        1 MOL      0.038008
     78 H34        -5.9170   -2.4470    1.8860 h1        1 MOL      0.038008
     79 N8         -4.1920   -3.6980    0.1250 n         1 MOL     -0.172792
     80 C25        -3.0860   -4.5800   -0.1580 c3        1 MOL     -0.377207
     81 C26        -1.8210   -3.7900    0.2020 c         1 MOL      0.731317
     82 O14        -1.6940   -2.5800   -0.0960 o         1 MOL     -0.667352
     83 C27        -3.0240   -5.2560   -1.5500 c3        1 MOL      0.606233
     84 C28        -3.8020   -6.6340   -1.5400 c3        1 MOL     -0.516259
     85 O15        -3.5410   -4.3730   -2.5030 oh        1 MOL     -0.642568
     86 H35        -4.0400   -2.6970    0.0460 hn        1 MOL      0.188823
     87 H36        -3.2360   -5.3820    0.5670 h1        1 MOL      0.127398
     88 H37        -1.9680   -5.4370   -1.7520 h1        1 MOL     -0.051712
     89 H38        -3.8320   -3.6060   -2.0100 ho        1 MOL      0.431483
     90 H39        -4.8760   -6.4590   -1.4590 hc        1 MOL      0.131094
     91 H40        -3.6270   -7.1580   -2.4750 hc        1 MOL      0.131094
     92 H41        -3.4380   -7.2670   -0.7370 hc        1 MOL      0.131094
     93 N9         -0.8360   -4.4570    0.7820 n         1 MOL     -0.630323
     94 C29         0.5410   -3.9340    0.9300 c3        1 MOL      0.074411
     95 C30         1.5370   -4.1870   -0.2350 c         1 MOL      0.546255
     96 O16         1.4590   -5.2330   -0.9190 o         1 MOL     -0.575709
     97 C31         1.0360   -4.2510    2.3490 c3        1 MOL      0.054783
     98 C32         0.1990   -3.4050    3.4400 c3        1 MOL      0.176543
     99 C33         2.5380   -4.1740    2.5250 c3        1 MOL     -0.119686
    100 C34         0.6370   -3.8520    4.8510 c3        1 MOL     -0.386628
    101 H42        -1.0260   -5.4130    1.0490 hn        1 MOL      0.317219
    102 H43         0.4980   -2.8420    0.8900 h1        1 MOL      0.169714
    103 H44         0.8470   -5.2960    2.6080 hc        1 MOL      0.009616
    104 H45        -0.8410   -3.6540    3.2890 hc        1 MOL     -0.024590
    105 H46         0.3470   -2.3360    3.2440 hc        1 MOL     -0.024590
    106 H47         2.8090   -4.6340    3.4780 hc        1 MOL      0.006405
    107 H48         3.0700   -4.6680    1.7150 hc        1 MOL      0.006405
    108 H49         2.7910   -3.1150    2.5560 hc        1 MOL      0.006405
    109 H50         0.9510   -4.9010    4.8700 hc        1 MOL      0.098222
    110 H51         1.4550   -3.2220    5.2000 hc        1 MOL      0.098222
    111 H52        -0.2690   -3.7710    5.4470 hc        1 MOL      0.098222
    112 N10         2.4330   -3.2370   -0.5000 n         1 MOL     -0.052550
    113 C35         3.3950   -3.0630   -1.5740 c3        1 MOL     -0.082087
    114 C36         4.8560   -2.7900   -1.0380 c         1 MOL      0.267008
    115 O17         5.0420   -2.6020    0.1640 o         1 MOL     -0.274658
    116 C37         2.9110   -1.8610   -2.4200 c3        1 MOL      0.268689
    117 C38         1.6450   -2.1820   -3.2420 c3        1 MOL     -0.236854
    118 O18         2.7790   -0.6800   -1.6520 oh        1 MOL     -0.596992
    119 H53         2.2220   -2.3980    0.0280 hn        1 MOL     -0.058084
    120 H54         3.4370   -3.9650   -2.1970 h1        1 MOL      0.086245
    121 H55         3.6540   -1.6340   -3.1900 h1        1 MOL      0.021005
    122 H56         1.9420   -0.7840   -1.1930 ho        1 MOL      0.379072
    123 H57         0.8930   -2.4900   -2.5050 hc        1 MOL      0.066248
    124 H58         1.4280   -1.3770   -3.9360 hc        1 MOL      0.066248
    125 H59         1.8110   -3.0990   -3.8040 hc        1 MOL      0.066248
    126 N11         5.8840   -2.6830   -1.9060 n         1 MOL     -0.187666
    127 C39         7.2840   -2.2740   -1.3790 c3        1 MOL     -0.284293
    128 C40         7.2240   -1.0820   -0.3950 c         1 MOL      0.503016
    129 O19         7.5850   -1.3060    0.7340 o         1 MOL     -0.463076
    130 C41         8.2180   -1.9300   -2.5500 c3        1 MOL      0.435876
    131 C42         8.4010   -3.0910   -3.4970 c3        1 MOL     -0.497698
    132 O20         7.7080   -0.8240   -3.2380 oh        1 MOL     -0.710365
    133 H60         5.6760   -2.7900   -2.8810 hn        1 MOL      0.227158
    134 H61         7.8110   -3.0970   -0.9000 h1        1 MOL      0.161315
    135 H62         9.2050   -1.5900   -2.2380 h1        1 MOL      0.017212
    136 H63         8.3580   -0.5750   -3.9030 ho        1 MOL      0.418806
    137 H64         9.2000   -2.7570   -4.1470 hc        1 MOL      0.135586
    138 H65         8.4940   -4.0460   -2.9840 hc        1 MOL      0.135586
    139 H66         7.4940   -3.1930   -4.0890 hc        1 MOL      0.135586
    140 N12         6.4500   -0.0010   -0.7420 n         1 MOL     -0.406731
    141 C43         6.4950    1.2650   -0.0250 c3        1 MOL     -0.017290
    142 C44         5.8370    1.1640    1.3370 c         1 MOL      0.329687
    143 O21         6.2490    1.7510    2.3330 o         1 MOL     -0.516047
    144 C45         5.7100    2.2420   -0.8940 c3        1 MOL     -0.224329
    145 C46         6.4970    2.6050   -2.1240 c3        1 MOL      0.151428
    146 C47         5.8760    3.8510   -2.8260 c3        1 MOL     -0.140807
    147 C48         6.5780    4.2260   -4.2020 c3        1 MOL     -0.030444
    148 N13         7.9680    4.6000   -4.1670 n4        1 MOL     -0.290745
    149 H67         5.9800   -0.0270   -1.6330 hn        1 MOL      0.342686
    150 H68         7.5300    1.5460    0.1550 h1        1 MOL      0.114778
    151 H69         5.6420    3.2290   -0.4230 hc        1 MOL      0.086372
    152 H70         4.7300    1.8110   -1.1070 hc        1 MOL      0.086372
    153 H71         6.3790    1.7720   -2.8070 hc        1 MOL     -0.008171
    154 H72         7.5620    2.7010   -1.9250 hc        1 MOL     -0.008171
    155 H73         5.9700    4.7390   -2.1940 hc        1 MOL      0.069627
    156 H74         4.8400    3.6660   -3.0980 hc        1 MOL      0.069627
    157 H75         6.0680    5.0500   -4.6960 hx        1 MOL      0.100066
    158 H76         6.5250    3.3800   -4.8900 hx        1 MOL      0.100066
    159 H77         8.4290    3.7800   -3.7900 hn        1 MOL      0.265837
    160 H78         8.2810    4.8100   -5.0950 hn        1 MOL      0.265837
    161 H79         8.0410    5.4240   -3.5820 hn        1 MOL      0.265837
    162 N14         4.8060    0.3680    1.3480 n         1 MOL      0.033540
    163 C49         3.9340    0.1920    2.4760 c3        1 MOL     -0.260998
    164 C50         4.4530   -0.7740    3.4870 c         1 MOL      0.537362
    165 O22         4.2220   -0.6660    4.6380 o         1 MOL     -0.547308
    166 C51         2.5790   -0.2660    1.9400 c3        1 MOL      0.157586
    167 C52         1.8730    0.8130    1.0760 c3        1 MOL     -0.044849
    168 C53         0.5800    0.3460    0.3400 c         1 MOL      0.637710
    169 O23         0.6200   -0.7140   -0.3210 o         1 MOL     -0.724703
    170 O24        -0.4320    1.0550    0.2910 o         1 MOL     -0.724703
    171 H80         4.4490   -0.0310    0.4840 hn        1 MOL      0.028876
    172 H81         3.9740    1.1530    2.9860 h1        1 MOL      0.126909
    173 H82         1.9790   -0.5000    2.8210 hc        1 MOL      0.046032
    174 H83         2.8220   -1.2000    1.4220 hc        1 MOL      0.046032
    175 H84         2.5290    1.2680    0.3220 hc        1 MOL     -0.007289
    176 H85         1.6010    1.6590    1.6920 hc        1 MOL     -0.007289
    177 N15         5.2120   -1.7880    3.0540 n         1 MOL     -0.044083
    178 C54         5.9650   -2.7450    3.7300 c3        1 MOL     -0.320382
    179 H86         6.2400   -2.3620    4.7120 h1        1 MOL      0.108249
    180 H87         5.3760   -3.6540    3.8470 h1        1 MOL      0.108249
    181 H88         6.8670   -2.9660    3.1590 h1        1 MOL      0.108249
    182 H89         5.3120   -1.8980    2.0530 hn        1 MOL      0.100364
    183 Ca1        -1.8820   -0.2920   -1.4810 Ca        1 MOL      1.740584
    184 O25        -0.1540    0.6610   -3.3630 oh        1 MOL     -0.825731
    185 H90         0.8040    0.6460   -3.4640 ho        1 MOL      0.386732
    186 H91        -0.3600    1.5920   -3.2800 ho        1 MOL      0.386732
    187 O26        -1.5460   -2.3940   -3.1760 oh        1 MOL     -0.825731
    188 H92        -0.7930   -2.4200   -3.7600 ho        1 MOL      0.386732
    189 H93        -2.0680   -3.1590   -3.4260 ho        1 MOL      0.386732
@<TRIPOS>BOND
     1    1    2 1   
     2    1    4 1   
     3    1    5 1   
     4    1    6 1   
     5    2    3 2   
     6    2    7 1   
     7    7    8 1   
     8    7   15 1   
     9    8    9 1   
    10    8   11 1   
    11    8   16 1   
    12    9   10 2   
    13    9   19 1   
    14   11   12 1   
    15   11   17 1   
    16   11   18 1   
    17   12   13 1   
    18   12   14 1   
    19   19   20 1   
    20   19   28 1   
    21   20   21 1   
    22   20   23 1   
    23   20   29 1   
    24   21   22 2   
    25   21   41 1   
    26   23   24 1   
    27   23   30 1   
    28   23   31 1   
    29   24   25 1   
    30   24   32 1   
    31   24   33 1   
    32   25   26 1   
    33   25   34 1   
    34   25   35 1   
    35   26   27 1   
    36   26   36 1   
    37   26   37 1   
    38   27   38 1   
    39   27   39 1   
    40   27   40 1   
    41   41   42 1   
    42   41   49 1   
    43   42   43 1   
    44   42   45 1   
    45   42   50 1   
    46   43   44 2   
    47   43   53 1   
    48   45   46 1   
    49   45   51 1   
    50   45   52 1   
    51   46   47 1   
    52   46   48 1   
    53   53   54 1   
    54   53   57 1   
    55   54   55 1   
    56   54   58 1   
    57   54   59 1   
    58   55   56 2   
    59   55   60 1   
    60   60   61 1   
    61   60   68 1   
    62   61   62 1   
    63   61   64 1   
    64   61   69 1   
    65   62   63 2   
    66   62   72 1   
    67   64   65 1   
    68   64   70 1   
    69   64   71 1   
    70   65   66 1   
    71   65   67 1   
    72   72   73 1   
    73   72   76 1   
    74   73   74 1   
    75   73   77 1   
    76   73   78 1   
    77   74   75 2   
    78   74   79 1   
    79   79   80 1   
    80   79   86 1   
    81   80   81 1   
    82   80   83 1   
    83   80   87 1   
    84   81   82 2   
    85   81   93 1   
    86   83   84 1   
    87   83   85 1   
    88   83   88 1   
    89   84   90 1   
    90   84   91 1   
    91   84   92 1   
    92   85   89 1   
    93   93   94 1   
    94   93  101 1   
    95   94   95 1   
    96   94   97 1   
    97   94  102 1   
    98   95   96 2   
    99   95  112 1   
   100   97   98 1   
   101   97   99 1   
   102   97  103 1   
   103   98  100 1   
   104   98  104 1   
   105   98  105 1   
   106   99  106 1   
   107   99  107 1   
   108   99  108 1   
   109  100  109 1   
   110  100  110 1   
   111  100  111 1   
   112  112  113 1   
   113  112  119 1   
   114  113  114 1   
   115  113  116 1   
   116  113  120 1   
   117  114  115 2   
   118  114  126 1   
   119  116  117 1   
   120  116  118 1   
   121  116  121 1   
   122  117  123 1   
   123  117  124 1   
   124  117  125 1   
   125  118  122 1   
   126  126  127 1   
   127  126  133 1   
   128  127  128 1   
   129  127  130 1   
   130  127  134 1   
   131  128  129 2   
   132  128  140 1   
   133  130  131 1   
   134  130  132 1   
   135  130  135 1   
   136  131  137 1   
   137  131  138 1   
   138  131  139 1   
   139  132  136 1   
   140  140  141 1   
   141  140  149 1   
   142  141  142 1   
   143  141  144 1   
   144  141  150 1   
   145  142  143 2   
   146  142  162 1   
   147  144  145 1   
   148  144  151 1   
   149  144  152 1   
   150  145  146 1   
   151  145  153 1   
   152  145  154 1   
   153  146  147 1   
   154  146  155 1   
   155  146  156 1   
   156  147  148 1   
   157  147  157 1   
   158  147  158 1   
   159  148  159 1   
   160  148  160 1   
   161  148  161 1   
   162  162  163 1   
   163  162  171 1   
   164  163  164 1   
   165  163  166 1   
   166  163  172 1   
   167  164  165 2   
   168  164  177 1   
   169  166  167 1   
   170  166  173 1   
   171  166  174 1   
   172  167  168 1   
   173  167  175 1   
   174  167  176 1   
   175  168  169 1   
   176  168  170 1   
   177  177  178 1   
   178  177  182 1   
   179  178  179 1   
   180  178  180 1   
   181  178  181 1   
   182  184  185 1   
   183  184  186 1   
   184  187  188 1   
   185  187  189 1   
@<TRIPOS>SUBSTRUCTURE
     1 MOL         1 TEMP              0 ****  ****    0 ROOT
