@<TRIPOS>MOLECULE
MOL
  179   176     1     0     0
SMALL
resp


@<TRIPOS>ATOM
      1 C1          2.3040    3.2680    4.0530 c3        1 MOL     -0.472698
      2 C2          1.3090    3.0540    2.8430 c         1 MOL      0.665549
      3 O1          1.7400    3.0040    1.6560 o         1 MOL     -0.603558
      4 H1          3.2840    2.8720    3.7900 hc        1 MOL      0.129294
      5 H2          2.3900    4.3330    4.2690 hc        1 MOL      0.129294
      6 H3          1.9240    2.7480    4.9330 hc        1 MOL      0.129294
      7 N1          0.0030    3.0230    3.1000 n         1 MOL     -0.693655
      8 C3         -0.9910    2.8310    2.0410 c3        1 MOL      0.143169
      9 C4         -1.5150    4.1560    1.6620 c         1 MOL      0.730356
     10 O2         -2.6540    4.4940    1.8750 o         1 MOL     -0.517171
     11 C5         -1.9860    1.8150    2.5730 c3        1 MOL     -0.289013
     12 C6         -3.0990    1.5570    1.6150 c         1 MOL      0.753854
     13 O3         -4.3080    1.3730    1.9690 o         1 MOL     -0.684749
     14 O4         -2.7710    1.4890    0.4170 o         1 MOL     -0.684749
     15 H4         -0.3070    2.8510    4.0440 hn        1 MOL      0.377556
     16 H5         -0.5580    2.3640    1.1500 h1        1 MOL     -0.019288
     17 H6         -2.4110    2.3230    3.4360 hc        1 MOL      0.053578
     18 H7         -1.4590    0.8710    2.7350 hc        1 MOL      0.053578
     19 N2         -0.7020    4.8840    0.9340 n         1 MOL     -0.720701
     20 C7         -1.1140    6.1520    0.3390 c3        1 MOL      0.102766
     21 C8         -2.0440    5.9660   -0.8450 c         1 MOL      0.388164
     22 O5         -2.8330    6.9470   -1.1050 o         1 MOL     -0.531922
     23 C9          0.1030    6.9060   -0.1890 c3        1 MOL     -0.082767
     24 C10         1.1080    7.1160    0.9300 c3        1 MOL     -0.031215
     25 C11         2.2570    8.0780    0.6120 c3        1 MOL      0.028733
     26 C12         3.2750    8.0190    1.7480 c3        1 MOL      0.052527
     27 N3          4.2790    6.9860    1.5430 n4        1 MOL     -0.422377
     28 H8          0.1810    4.4260    0.7480 hn        1 MOL      0.441590
     29 H9         -1.6370    6.8350    1.0040 h1        1 MOL      0.105914
     30 H10        -0.2570    7.8610   -0.5730 hc        1 MOL      0.048584
     31 H11         0.6230    6.3680   -0.9850 hc        1 MOL      0.048584
     32 H12         1.5480    6.1980    1.3130 hc        1 MOL      0.027648
     33 H13         0.6390    7.6250    1.7780 hc        1 MOL      0.027648
     34 H14         1.9680    9.1240    0.5560 hc        1 MOL      0.027782
     35 H15         2.7190    7.8170   -0.3460 hc        1 MOL      0.027782
     36 H16         2.7880    7.7300    2.6750 hx        1 MOL      0.074009
     37 H17         3.7200    9.0070    1.8150 hx        1 MOL      0.074009
     38 H18         4.3040    6.6140    0.6010 hn        1 MOL      0.349252
     39 H19         5.2360    7.2960    1.5680 hn        1 MOL      0.349252
     40 H20         4.0810    6.2320    2.1860 hn        1 MOL      0.349252
     41 N4         -2.1440    4.8010   -1.5400 n         1 MOL     -0.295099
     42 C13        -3.1250    4.6570   -2.6830 c3        1 MOL      0.111054
     43 C14        -4.5750    4.3240   -2.1420 c         1 MOL      0.429145
     44 O6         -5.5020    4.6440   -2.8540 o         1 MOL     -0.557788
     45 C15        -2.5560    3.6240   -3.7200 c3        1 MOL     -0.337536
     46 C16        -2.3000    2.2740   -3.1080 c         1 MOL      0.824144
     47 O7         -3.0820    1.3790   -2.7330 o         1 MOL     -0.729992
     48 O8         -1.1150    2.1100   -2.8110 o         1 MOL     -0.729992
     49 H21        -1.3180    4.2200   -1.4630 hn        1 MOL      0.241242
     50 H22        -3.2670    5.6150   -3.1720 h1        1 MOL      0.084306
     51 H23        -1.6720    4.0450   -4.2110 hc        1 MOL      0.077297
     52 H24        -3.4330    3.5840   -4.3560 hc        1 MOL      0.077297
     53 N5         -4.6510    3.8870   -0.9330 n         1 MOL     -0.021430
     54 C17        -5.8720    3.6230   -0.1860 c3        1 MOL     -0.229880
     55 C18        -6.4540    2.1840   -0.3180 c         1 MOL      0.608529
     56 O9         -7.5770    2.0760    0.0860 o         1 MOL     -0.583170
     57 H25        -3.7400    3.7000   -0.5400 hn        1 MOL      0.059954
     58 H26        -6.5900    4.3270   -0.6180 h1        1 MOL      0.117573
     59 H27        -5.6870    3.9550    0.8440 h1        1 MOL      0.117573
     60 N6         -5.7370    1.2390   -0.9270 n         1 MOL     -0.267956
     61 C19        -6.3560   -0.0270   -1.1750 c3        1 MOL     -0.045521
     62 C20        -6.4390   -1.0910   -0.0140 c         1 MOL      0.412282
     63 O10        -6.6350   -2.2960   -0.2810 o         1 MOL     -0.486839
     64 C21        -5.7430   -0.6700   -2.4920 c3        1 MOL     -0.142679
     65 C22        -4.5990   -1.6470   -2.2850 c         1 MOL      0.496519
     66 N7         -4.5550   -2.7580   -2.9470 n         1 MOL     -0.679734
     67 O11        -3.7470   -1.4460   -1.4600 o         1 MOL     -0.497438
     68 H28        -4.7740    1.3930   -1.2090 hn        1 MOL      0.135410
     69 H29        -7.4120    0.1080   -1.3980 h1        1 MOL      0.122313
     70 H30        -5.4520    0.1270   -3.1840 hc        1 MOL      0.069176
     71 H31        -6.6050   -1.2120   -2.8800 hc        1 MOL      0.069176
     72 H32        -5.1300   -2.7550   -3.7820 hn        1 MOL      0.345131
     73 H33        -3.8530   -3.4550   -2.7260 hn        1 MOL      0.345131
     74 N8         -6.1820   -0.7300    1.2650 n         1 MOL     -0.322502
     75 C23        -5.9640   -1.6570    2.4430 c3        1 MOL     -0.270001
     76 C24        -4.8440   -2.6010    2.4800 c         1 MOL      0.603179
     77 O12        -4.7770   -3.4020    3.4010 o         1 MOL     -0.574591
     78 H34        -5.8730    0.2350    1.3800 hn        1 MOL      0.332141
     79 H35        -6.8920   -2.2040    2.5610 h1        1 MOL      0.146686
     80 H36        -5.8300   -0.9700    3.2750 h1        1 MOL      0.146686
     81 N9         -3.8890   -2.5520    1.5150 n         1 MOL     -0.250413
     82 C25        -2.7170   -3.4090    1.4250 c3        1 MOL      0.412826
     83 C26        -1.4530   -2.5560    1.3220 c         1 MOL      0.262863
     84 O13        -1.5270   -1.3900    0.8440 o         1 MOL     -0.522264
     85 C27        -2.7460   -4.4620    0.3260 c3        1 MOL     -0.145273
     86 C28        -3.8750   -5.5080    0.3890 ca        1 MOL     -0.014651
     87 C29        -3.6100   -6.7280    0.9720 ca        1 MOL     -0.049604
     88 C30        -5.0690   -5.3470   -0.3200 ca        1 MOL     -0.049604
     89 C31        -4.5970   -7.7380    0.9520 ca        1 MOL     -0.376633
     90 C32        -6.0540   -6.3040   -0.3320 ca        1 MOL     -0.376633
     91 C33        -5.8420   -7.5200    0.3790 ca        1 MOL      0.475399
     92 O14        -6.7710   -8.5640    0.3480 oh        1 MOL     -0.570932
     93 H37        -3.9290   -1.8990    0.7510 hn        1 MOL      0.109850
     94 H38        -2.6820   -3.9080    2.3960 h1        1 MOL     -0.037755
     95 H39        -1.8650   -5.0790    0.4700 hc        1 MOL      0.028176
     96 H40        -2.7630   -3.8920   -0.6060 hc        1 MOL      0.028176
     97 H41        -2.6000   -6.9340    1.3100 ha        1 MOL      0.108135
     98 H42        -5.2300   -4.3900   -0.7980 ha        1 MOL      0.108135
     99 H43        -4.4110   -8.6010    1.5920 ha        1 MOL      0.170984
    100 H44        -7.0080   -6.0960   -0.7890 ha        1 MOL      0.170984
    101 H45        -7.5580   -8.3720   -0.1520 ho        1 MOL      0.397743
    102 N10        -0.2520   -3.0840    1.5880 n         1 MOL     -0.307015
    103 C34         1.0400   -2.4330    1.2680 c3        1 MOL     -0.177768
    104 C35         1.9710   -3.5160    0.6630 c         1 MOL      0.569198
    105 O15         1.8420   -4.6860    0.8960 o         1 MOL     -0.539207
    106 C36         1.6260   -1.6860    2.4460 c3        1 MOL      0.078841
    107 C37         1.9020   -2.5310    3.6980 c3        1 MOL     -0.342627
    108 C38         0.7890   -0.4980    2.8170 c3        1 MOL     -0.136560
    109 C39         2.6530   -1.8770    4.8410 c3        1 MOL      0.015739
    110 H46        -0.1470   -4.0680    1.8330 hn        1 MOL      0.258126
    111 H47         0.8410   -1.7320    0.4620 h1        1 MOL      0.154473
    112 H48         2.5860   -1.3460    2.0480 hc        1 MOL     -0.033961
    113 H49         2.4680   -3.4180    3.4290 hc        1 MOL      0.121644
    114 H50         1.0120   -3.0180    4.1170 hc        1 MOL      0.121644
    115 H51        -0.0850   -0.8400    3.3600 hc        1 MOL      0.089452
    116 H52         1.3940    0.1600    3.4530 hc        1 MOL      0.089452
    117 H53         0.4790    0.0800    1.9480 hc        1 MOL      0.089452
    118 H54         3.5050   -1.2600    4.5590 hc        1 MOL      0.007151
    119 H55         1.9620   -1.2060    5.3620 hc        1 MOL      0.007151
    120 H56         3.0580   -2.5500    5.5980 hc        1 MOL      0.007151
    121 N11         3.0870   -3.1540    0.0050 n         1 MOL     -0.357512
    122 C40         4.1450   -3.9520   -0.5510 c3        1 MOL      0.159324
    123 C41         5.5580   -3.4010   -0.0950 c         1 MOL      0.356066
    124 O16         5.6870   -2.3620    0.5410 o         1 MOL     -0.449398
    125 C42         4.1840   -3.9350   -2.0740 c3        1 MOL     -0.177372
    126 O17         4.4970   -2.6990   -2.6700 oh        1 MOL     -0.566468
    127 H57         3.1690   -2.1480   -0.0360 hn        1 MOL      0.310621
    128 H58         4.0380   -4.9670   -0.1640 h1        1 MOL      0.057185
    129 H59         3.1820   -4.3200   -2.2860 h1        1 MOL      0.102351
    130 H60         4.8580   -4.7310   -2.3890 h1        1 MOL      0.102351
    131 H61         4.4000   -2.9230   -3.6060 ho        1 MOL      0.425767
    132 N12         6.6450   -4.0920   -0.5240 n         1 MOL     -0.274544
    133 C43         7.9880   -3.6580   -0.2300 c3        1 MOL     -0.026571
    134 C44         8.3590   -2.4050   -1.0310 c         1 MOL      0.577278
    135 O18         9.1830   -1.6830   -0.5220 o         1 MOL     -0.517186
    136 C45         8.9020   -4.8090   -0.5870 c3        1 MOL     -0.252258
    137 H62         6.4540   -5.0400   -0.8120 hn        1 MOL      0.238047
    138 H63         8.0620   -3.3850    0.8160 h1        1 MOL      0.121553
    139 H64         9.0130   -4.9650   -1.6580 hc        1 MOL      0.086891
    140 H65         9.8870   -4.8100   -0.1100 hc        1 MOL      0.086891
    141 H66         8.4270   -5.7020   -0.1860 hc        1 MOL      0.086891
    142 N13         7.7850   -2.1740   -2.2470 n         1 MOL     -0.529460
    143 C46         7.7670   -0.8020   -2.8450 c3        1 MOL      0.255997
    144 C47         7.1070    0.2940   -1.9480 c         1 MOL      0.266495
    145 O19         7.5440    1.4390   -1.9900 o         1 MOL     -0.514534
    146 C48         7.1960   -0.8710   -4.2100 c3        1 MOL     -0.397241
    147 H67         7.0030   -2.7710   -2.4700 hn        1 MOL      0.266692
    148 H68         8.8070   -0.4720   -2.8630 h1        1 MOL      0.074744
    149 H69         7.0270    0.1480   -4.5680 hc        1 MOL      0.113195
    150 H70         7.9240   -1.3860   -4.8260 hc        1 MOL      0.113195
    151 H71         6.2690   -1.4320   -4.1860 hc        1 MOL      0.113195
    152 N14         6.1010    0.0350   -1.0910 n         1 MOL      0.072953
    153 C49         5.4020    1.0220   -0.1990 c3        1 MOL     -0.237227
    154 C50         6.2170    1.2230    1.1010 c         1 MOL      0.611241
    155 O20         6.2620    2.2650    1.6790 o         1 MOL     -0.608367
    156 C51         3.9620    0.5020    0.1510 c3        1 MOL      0.013730
    157 C52         3.1310    1.0010   -1.0040 c3        1 MOL      0.036275
    158 C53         1.7050    0.3950   -0.9670 c         1 MOL      0.762037
    159 O21         0.7230    0.9950   -0.5050 o         1 MOL     -0.781513
    160 O22         1.4250   -0.7380   -1.5220 o         1 MOL     -0.781513
    161 H72         5.7160   -0.8980   -1.0180 hn        1 MOL      0.108907
    162 H73         5.5020    1.9730   -0.7240 h1        1 MOL      0.111125
    163 H74         3.6390    0.9710    1.0820 hc        1 MOL      0.050209
    164 H75         3.8560   -0.5690    0.3160 hc        1 MOL      0.050209
    165 H76         3.5920    0.7640   -1.9630 hc        1 MOL     -0.026575
    166 H77         2.9960    2.0740   -0.9040 hc        1 MOL     -0.026575
    167 N15         6.7890    0.1360    1.6230 n         1 MOL     -0.328769
    168 C54         7.9020    0.3330    2.6030 c3        1 MOL     -0.124211
    169 H78         8.8020   -0.1560    2.2330 h1        1 MOL      0.081043
    170 H79         8.0930    1.4000    2.7250 h1        1 MOL      0.081043
    171 H80         7.6230   -0.0990    3.5630 h1        1 MOL      0.081043
    172 H81         6.6570   -0.7020    1.0650 hn        1 MOL      0.214105
    173 Ca1        -1.4420   -0.0210   -1.2990 Ca        1 MOL      1.773182
    174 O23        -0.6840   -2.7110   -1.7060 oh        1 MOL     -0.876794
    175 H82        -0.0170   -2.6700   -2.3990 ho        1 MOL      0.420564
    176 H83        -0.8910   -3.6470   -1.6380 ho        1 MOL      0.420564
    177 O24        -0.7390   -0.4230   -3.8370 oh        1 MOL     -0.876794
    178 H84        -0.0190   -1.0140   -4.0510 ho        1 MOL      0.420564
    179 H85        -0.9300    0.0240   -4.6700 ho        1 MOL      0.420564
@<TRIPOS>BOND
     1    1    2 1   
     2    1    4 1   
     3    1    5 1   
     4    1    6 1   
     5    2    3 2   
     6    2    7 1   
     7    7    8 1   
     8    7   15 1   
     9    8    9 1   
    10    8   11 1   
    11    8   16 1   
    12    9   10 2   
    13    9   19 1   
    14   11   12 1   
    15   11   17 1   
    16   11   18 1   
    17   12   13 1   
    18   12   14 1   
    19   19   20 1   
    20   19   28 1   
    21   20   21 1   
    22   20   23 1   
    23   20   29 1   
    24   21   22 2   
    25   21   41 1   
    26   23   24 1   
    27   23   30 1   
    28   23   31 1   
    29   24   25 1   
    30   24   32 1   
    31   24   33 1   
    32   25   26 1   
    33   25   34 1   
    34   25   35 1   
    35   26   27 1   
    36   26   36 1   
    37   26   37 1   
    38   27   38 1   
    39   27   39 1   
    40   27   40 1   
    41   41   42 1   
    42   41   49 1   
    43   42   43 1   
    44   42   45 1   
    45   42   50 1   
    46   43   44 2   
    47   43   53 1   
    48   45   46 1   
    49   45   51 1   
    50   45   52 1   
    51   46   47 1   
    52   46   48 1   
    53   53   54 1   
    54   53   57 1   
    55   54   55 1   
    56   54   58 1   
    57   54   59 1   
    58   55   56 2   
    59   55   60 1   
    60   60   61 1   
    61   60   68 1   
    62   61   62 1   
    63   61   64 1   
    64   61   69 1   
    65   62   63 2   
    66   62   74 1   
    67   64   65 1   
    68   64   70 1   
    69   64   71 1   
    70   65   66 1   
    71   65   67 2   
    72   66   72 1   
    73   66   73 1   
    74   74   75 1   
    75   74   78 1   
    76   75   76 1   
    77   75   79 1   
    78   75   80 1   
    79   76   77 2   
    80   76   81 1   
    81   81   82 1   
    82   81   93 1   
    83   82   83 1   
    84   82   85 1   
    85   82   94 1   
    86   83   84 2   
    87   83  102 1   
    88   85   86 1   
    89   85   95 1   
    90   85   96 1   
    91   86   87 ar  
    92   86   88 ar  
    93   87   89 ar  
    94   87   97 1   
    95   88   90 ar  
    96   88   98 1   
    97   89   91 ar  
    98   89   99 1   
    99   90   91 ar  
   100   90  100 1   
   101   91   92 1   
   102   92  101 1   
   103  102  103 1   
   104  102  110 1   
   105  103  104 1   
   106  103  106 1   
   107  103  111 1   
   108  104  105 2   
   109  104  121 1   
   110  106  107 1   
   111  106  108 1   
   112  106  112 1   
   113  107  109 1   
   114  107  113 1   
   115  107  114 1   
   116  108  115 1   
   117  108  116 1   
   118  108  117 1   
   119  109  118 1   
   120  109  119 1   
   121  109  120 1   
   122  121  122 1   
   123  121  127 1   
   124  122  123 1   
   125  122  125 1   
   126  122  128 1   
   127  123  124 2   
   128  123  132 1   
   129  125  126 1   
   130  125  129 1   
   131  125  130 1   
   132  126  131 1   
   133  132  133 1   
   134  132  137 1   
   135  133  134 1   
   136  133  136 1   
   137  133  138 1   
   138  134  135 2   
   139  134  142 1   
   140  136  139 1   
   141  136  140 1   
   142  136  141 1   
   143  142  143 1   
   144  142  147 1   
   145  143  144 1   
   146  143  146 1   
   147  143  148 1   
   148  144  145 2   
   149  144  152 1   
   150  146  149 1   
   151  146  150 1   
   152  146  151 1   
   153  152  153 1   
   154  152  161 1   
   155  153  154 1   
   156  153  156 1   
   157  153  162 1   
   158  154  155 2   
   159  154  167 1   
   160  156  157 1   
   161  156  163 1   
   162  156  164 1   
   163  157  158 1   
   164  157  165 1   
   165  157  166 1   
   166  158  159 1   
   167  158  160 1   
   168  167  168 1   
   169  167  172 1   
   170  168  169 1   
   171  168  170 1   
   172  168  171 1   
   173  174  175 1   
   174  174  176 1   
   175  177  178 1   
   176  177  179 1   
@<TRIPOS>SUBSTRUCTURE
     1 MOL         1 TEMP              0 ****  ****    0 ROOT
