@<TRIPOS>MOLECULE
MOL
  189   185     1     0     0
SMALL
resp


@<TRIPOS>ATOM
      1 C1          0.2970    1.8820    5.7630 c3        1 MOL     -0.299290
      2 C2         -0.3160    1.8340    4.3650 c         1 MOL      0.673602
      3 O1          0.2530    2.4330    3.4240 o         1 MOL     -0.594962
      4 H1          1.2880    2.3350    5.7100 hc        1 MOL      0.075680
      5 H2         -0.3390    2.4770    6.4190 hc        1 MOL      0.075680
      6 H3          0.3820    0.8700    6.1590 hc        1 MOL      0.075680
      7 N1         -1.5100    1.2410    4.2940 n         1 MOL     -0.566323
      8 C3         -2.2600    1.1910    3.0010 c3        1 MOL      0.235638
      9 C4         -2.8140    2.5690    2.4360 c         1 MOL      0.499753
     10 O2         -3.6120    3.2190    3.1510 o         1 MOL     -0.570260
     11 C5         -3.3840    0.1610    3.2020 c3        1 MOL     -0.260471
     12 C6         -4.2090   -0.1190    1.8720 c         1 MOL      0.701973
     13 O3         -5.4470   -0.3510    1.9310 o         1 MOL     -0.648365
     14 O4         -3.6330    0.0540    0.7730 o         1 MOL     -0.648365
     15 H4         -1.7900    0.7910    5.1550 hn        1 MOL      0.325769
     16 H5         -1.6170    0.7950    2.2090 h1        1 MOL     -0.004401
     17 H6         -3.9980    0.3860    4.0820 hc        1 MOL      0.059372
     18 H7         -2.8110   -0.7430    3.4290 hc        1 MOL      0.059372
     19 N2         -2.1090    3.1440    1.5020 n         1 MOL     -0.014874
     20 C7         -2.1840    4.5750    1.1940 c3        1 MOL      0.042595
     21 C8         -3.1740    4.9660    0.0660 c         1 MOL      0.283342
     22 O5         -4.0060    5.8850    0.2300 o         1 MOL     -0.537272
     23 C9         -0.7090    4.9740    0.9130 c3        1 MOL     -0.136308
     24 C10        -0.6210    6.5050    0.7410 c3        1 MOL     -0.186375
     25 C11         0.9090    6.8450    0.3150 c3        1 MOL     -0.035469
     26 C12         0.9880    8.3150   -0.2320 c3        1 MOL     -0.073336
     27 N3          0.6020    9.2870    0.8030 n4        1 MOL     -0.239397
     28 H8         -1.3410    2.6400    1.0880 hn        1 MOL     -0.190060
     29 H9         -2.4830    5.1840    2.0430 h1        1 MOL      0.085798
     30 H10        -0.3530    4.5160   -0.0050 hc        1 MOL      0.134060
     31 H11        -0.0660    4.7090    1.7510 hc        1 MOL      0.134060
     32 H12        -0.9760    6.9580    1.6680 hc        1 MOL      0.086253
     33 H13        -1.2920    6.7970   -0.0650 hc        1 MOL      0.086253
     34 H14         1.1920    6.1620   -0.4790 hc        1 MOL      0.057805
     35 H15         1.6450    6.7160    1.1140 hc        1 MOL      0.057805
     36 H16         0.2220    8.4090   -0.9870 hx        1 MOL      0.108967
     37 H17         1.9590    8.5740   -0.6500 hx        1 MOL      0.108967
     38 H18         1.0860    9.2680    1.6860 hn        1 MOL      0.295015
     39 H19         0.8610   10.2120    0.5190 hn        1 MOL      0.295015
     40 H20        -0.3790    9.3100    1.0510 hn        1 MOL      0.295015
     41 N4         -3.2560    4.1310   -0.9670 n         1 MOL     -0.225201
     42 C13        -4.3440    4.2050   -1.9910 c3        1 MOL      0.112743
     43 C14        -5.7140    3.5420   -1.5720 c         1 MOL      0.411490
     44 O6         -6.6770    3.8820   -2.2620 o         1 MOL     -0.524974
     45 C15        -3.7920    3.6860   -3.2780 c3        1 MOL     -0.517005
     46 C16        -3.0560    2.3200   -3.2010 c         1 MOL      0.891072
     47 O7         -3.2210    1.5710   -2.2220 o         1 MOL     -0.706981
     48 O8         -2.2310    2.0690   -4.1120 o         1 MOL     -0.706981
     49 H21        -2.6460    3.3230   -0.9830 hn        1 MOL      0.180572
     50 H22        -4.5370    5.2780   -2.0760 h1        1 MOL      0.085163
     51 H23        -3.2140    4.4870   -3.7470 hc        1 MOL      0.131566
     52 H24        -4.6870    3.6070   -3.9040 hc        1 MOL      0.131566
     53 N5         -5.7530    2.5850   -0.6240 n         1 MOL      0.012443
     54 C17        -6.9940    1.9890   -0.1140 c3        1 MOL     -0.282846
     55 C18        -7.5420    0.8470   -0.9210 c         1 MOL      0.739789
     56 O9         -8.5930    0.9910   -1.5020 o         1 MOL     -0.581256
     57 H25        -4.8820    2.1330   -0.3650 hn        1 MOL      0.065451
     58 H26        -7.7240    2.7870    0.0470 h1        1 MOL      0.100604
     59 H27        -6.8930    1.6090    0.9050 h1        1 MOL      0.100604
     60 N6         -6.7750   -0.2660   -0.9570 n         1 MOL     -0.516803
     61 C19        -7.1510   -1.5410   -1.6370 c3        1 MOL      0.044390
     62 C20        -6.9540   -2.7490   -0.7640 c         1 MOL      0.378058
     63 O10        -7.1490   -3.8880   -1.2250 o         1 MOL     -0.526520
     64 C21        -6.2510   -1.7410   -2.8340 c3        1 MOL     -0.124827
     65 C22        -4.7350   -1.5510   -2.6140 c         1 MOL      0.720618
     66 O11        -4.0260   -1.0050   -3.4720 o         1 MOL     -0.664257
     67 O12        -4.2100   -1.9230   -1.5350 o         1 MOL     -0.664257
     68 H28        -5.8880   -0.2240   -0.4750 hn        1 MOL      0.236033
     69 H29        -8.1790   -1.5950   -1.9720 h1        1 MOL      0.110377
     70 H30        -6.4650   -0.8950   -3.4940 hc        1 MOL      0.050245
     71 H31        -6.3970   -2.6340   -3.4380 hc        1 MOL      0.050245
     72 N7         -6.5770   -2.6230    0.5250 n         1 MOL     -0.161763
     73 C23        -6.6380   -3.8130    1.3770 c3        1 MOL     -0.362757
     74 C24        -5.3210   -4.5350    1.3270 c         1 MOL      0.584342
     75 O13        -5.1960   -5.6910    1.7370 o         1 MOL     -0.568233
     76 H32        -6.2550   -1.7250    0.8690 hn        1 MOL      0.202313
     77 H33        -7.3850   -4.5190    1.0230 h1        1 MOL      0.165903
     78 H34        -6.7170   -3.4500    2.3990 h1        1 MOL      0.165903
     79 N8         -4.2840   -3.9000    0.6930 n         1 MOL     -0.267536
     80 C25        -2.9560   -4.6220    0.3660 c3        1 MOL     -0.262851
     81 C26        -1.7620   -3.6220    0.6290 c         1 MOL      0.640899
     82 O14        -1.9780   -2.4140    0.6080 o         1 MOL     -0.643544
     83 C27        -2.8820   -5.2070   -1.0470 c3        1 MOL      0.570426
     84 C28        -3.6530   -6.5280   -1.1830 c3        1 MOL     -0.430772
     85 O15        -3.2590   -4.2880   -2.0840 oh        1 MOL     -0.659971
     86 H35        -4.3940   -3.0150    0.2180 hn        1 MOL      0.221413
     87 H36        -2.8700   -5.4610    1.0530 h1        1 MOL      0.119343
     88 H37        -1.8560   -5.4490   -1.3280 h1        1 MOL     -0.050632
     89 H38        -3.5140   -3.4270   -1.7520 ho        1 MOL      0.410865
     90 H39        -4.7060   -6.2850   -1.0120 hc        1 MOL      0.108892
     91 H40        -3.3650   -7.1330   -2.0400 hc        1 MOL      0.108892
     92 H41        -3.3810   -7.0790   -0.2870 hc        1 MOL      0.108892
     93 N9         -0.5100   -4.1020    0.8450 n         1 MOL     -0.631505
     94 C29         0.7160   -3.3260    1.1890 c3        1 MOL      0.249574
     95 C30         1.8720   -3.7080    0.2370 c         1 MOL      0.520347
     96 O16         2.1930   -4.8790    0.2340 o         1 MOL     -0.558734
     97 C31         1.0700   -3.4260    2.7320 c3        1 MOL      0.043242
     98 C32         0.0460   -2.6830    3.5630 c3        1 MOL      0.002655
     99 C33         2.4160   -2.7470    3.0710 c3        1 MOL     -0.077312
    100 C34         0.2420   -2.8990    5.0630 c3        1 MOL     -0.356424
    101 H42        -0.4250   -5.1140    0.8560 hn        1 MOL      0.288810
    102 H43         0.4200   -2.2950    0.9880 h1        1 MOL     -0.024601
    103 H44         1.1610   -4.4800    2.9720 hc        1 MOL      0.007964
    104 H45        -0.9730   -3.0320    3.3800 hc        1 MOL      0.058398
    105 H46         0.0800   -1.6340    3.2730 hc        1 MOL      0.058398
    106 H47         3.1930   -3.2590    2.5020 hc        1 MOL      0.007828
    107 H48         2.2720   -1.6970    2.8160 hc        1 MOL      0.007828
    108 H49         2.6730   -2.9120    4.1160 hc        1 MOL      0.007828
    109 H50         1.2380   -2.6560    5.4460 hc        1 MOL      0.089163
    110 H51        -0.5620   -2.4750    5.6710 hc        1 MOL      0.089163
    111 H52         0.0410   -3.9500    5.2460 hc        1 MOL      0.089163
    112 N10         2.5080   -2.7430   -0.4320 n         1 MOL     -0.232701
    113 C35         3.7290   -2.8450   -1.2490 c3        1 MOL     -0.022342
    114 C36         4.9850   -2.5890   -0.3930 c         1 MOL      0.422481
    115 O17         5.0220   -2.0390    0.7050 o         1 MOL     -0.358396
    116 C37         3.7510   -1.9300   -2.4800 c3        1 MOL      0.351381
    117 C38         2.5150   -2.1690   -3.3880 c3        1 MOL     -0.148978
    118 O18         3.9820   -0.5760   -2.1880 oh        1 MOL     -0.677688
    119 H53         2.1200   -1.8160   -0.4180 hn        1 MOL      0.079133
    120 H54         3.7690   -3.8670   -1.6250 h1        1 MOL      0.054020
    121 H55         4.5070   -2.3610   -3.1400 h1        1 MOL     -0.015067
    122 H56         3.2680   -0.0190   -2.4900 ho        1 MOL      0.450023
    123 H57         1.6440   -1.6430   -2.9770 hc        1 MOL      0.043746
    124 H58         2.7090   -1.7190   -4.3580 hc        1 MOL      0.043746
    125 H59         2.3110   -3.2340   -3.5210 hc        1 MOL      0.043746
    126 N11         6.1200   -2.9380   -0.9800 n         1 MOL     -0.389690
    127 C39         7.4530   -2.7220   -0.3890 c3        1 MOL     -0.058971
    128 C40         7.6950   -1.2800    0.1650 c         1 MOL      0.141300
    129 O19         8.2310   -1.2830    1.2750 o         1 MOL     -0.431856
    130 C41         8.5130   -2.8980   -1.4550 c3        1 MOL      0.372754
    131 C42         8.7250   -4.3240   -1.8130 c3        1 MOL     -0.492992
    132 O20         8.2670   -2.2280   -2.6600 oh        1 MOL     -0.601365
    133 H60         6.0900   -3.4360   -1.8570 hn        1 MOL      0.294340
    134 H61         7.6270   -3.4180    0.4370 h1        1 MOL      0.153754
    135 H62         9.5190   -2.6170   -1.1230 h1        1 MOL      0.035833
    136 H63         8.7010   -1.3760   -2.6960 ho        1 MOL      0.358819
    137 H64         9.0940   -4.7940   -0.8940 hc        1 MOL      0.140977
    138 H65         7.8270   -4.8280   -2.1700 hc        1 MOL      0.140977
    139 H66         9.5270   -4.2540   -2.5390 hc        1 MOL      0.140977
    140 N12         7.1690   -0.1710   -0.4450 n         1 MOL     -0.039064
    141 C43         7.3330    1.1770    0.0060 c3        1 MOL      0.023793
    142 C44         6.2720    1.7430    0.9570 c         1 MOL      0.242463
    143 O21         6.4880    2.5330    1.9060 o         1 MOL     -0.468813
    144 C45         7.5330    2.0610   -1.2060 c3        1 MOL     -0.034348
    145 C46         6.5660    2.0070   -2.3900 c3        1 MOL     -0.020673
    146 C47         6.6590    3.0070   -3.5670 c3        1 MOL     -0.020031
    147 C48         7.7320    2.6200   -4.5980 c3        1 MOL     -0.268307
    148 N13         9.1210    2.7650   -4.0210 n4        1 MOL     -0.180997
    149 H67         6.7980   -0.2570   -1.3820 hn        1 MOL      0.101876
    150 H68         8.2660    1.2830    0.5590 h1        1 MOL      0.107760
    151 H69         8.5140    1.8090   -1.5980 hc        1 MOL     -0.008143
    152 H70         7.7180    3.0640   -0.8280 hc        1 MOL     -0.008143
    153 H71         5.6110    2.0650   -1.8660 hc        1 MOL      0.028167
    154 H72         6.4060    1.0360   -2.8490 hc        1 MOL      0.028167
    155 H73         6.8570    3.9720   -3.1190 hc        1 MOL      0.082675
    156 H74         5.6410    3.1960   -3.8900 hc        1 MOL      0.082675
    157 H75         7.5610    3.3120   -5.4160 hx        1 MOL      0.171963
    158 H76         7.6510    1.5450   -4.7940 hx        1 MOL      0.171963
    159 H77         9.2280    2.0620   -3.3110 hn        1 MOL      0.268190
    160 H78         9.8460    2.7290   -4.7190 hn        1 MOL      0.268190
    161 H79         9.3060    3.6820   -3.6300 hn        1 MOL      0.268190
    162 N14         5.1000    1.1120    0.8730 n         1 MOL     -0.093757
    163 C49         4.0200    1.2660    1.8510 c3        1 MOL     -0.270893
    164 C50         4.3850    0.6520    3.2120 c         1 MOL      0.498323
    165 O22         4.0620    1.3080    4.2050 o         1 MOL     -0.539378
    166 C51         2.7400    0.6070    1.3490 c3        1 MOL      0.345822
    167 C52         1.8710    1.3570    0.4440 c3        1 MOL     -0.041019
    168 C53         0.6000    0.6480   -0.0290 c         1 MOL      0.502347
    169 O23        -0.3890    1.4080   -0.2740 o         1 MOL     -0.534820
    170 O24         0.5990   -0.5410   -0.3690 o         1 MOL     -0.534820
    171 H80         4.9560    0.3870    0.1860 hn        1 MOL      0.168105
    172 H81         3.9420    2.3310    2.0610 h1        1 MOL      0.141707
    173 H82         2.1690    0.4260    2.2700 hc        1 MOL     -0.038533
    174 H83         3.0230   -0.3770    0.9930 hc        1 MOL     -0.038533
    175 H84         2.5310    1.5830   -0.3900 hc        1 MOL     -0.035210
    176 H85         1.5710    2.3100    0.8790 hc        1 MOL     -0.035210
    177 N15         5.0440   -0.5080    3.2410 n         1 MOL     -0.132106
    178 C54         5.5360   -1.1400    4.4870 c3        1 MOL     -0.179395
    179 H86         6.5960   -0.9190    4.6110 h1        1 MOL      0.081832
    180 H87         4.9810   -0.7450    5.3380 h1        1 MOL      0.081832
    181 H88         5.3940   -2.2190    4.4290 h1        1 MOL      0.081832
    182 H89         5.2280   -0.9960    2.3740 hn        1 MOL      0.196144
    183 Ca1        -1.9790   -0.4590   -1.1130 Ca        1 MOL      1.691269
    184 O25        -1.1460   -2.6790   -2.6640 oh        1 MOL     -0.908608
    185 H90        -1.6990   -3.4610   -2.6370 ho        1 MOL      0.408825
    186 H91        -0.6570   -2.7600   -3.4780 ho        1 MOL      0.408825
    187 O26        -0.5660    0.3550   -3.4570 oh        1 MOL     -0.908608
    188 H92        -0.5520   -0.2690   -4.1790 ho        1 MOL      0.408825
    189 H93        -1.1690    1.0430   -3.7460 ho        1 MOL      0.408825
@<TRIPOS>BOND
     1    1    2 1   
     2    1    4 1   
     3    1    5 1   
     4    1    6 1   
     5    2    3 2   
     6    2    7 1   
     7    7    8 1   
     8    7   15 1   
     9    8    9 1   
    10    8   11 1   
    11    8   16 1   
    12    9   10 2   
    13    9   19 1   
    14   11   12 1   
    15   11   17 1   
    16   11   18 1   
    17   12   13 1   
    18   12   14 1   
    19   19   20 1   
    20   19   28 1   
    21   20   21 1   
    22   20   23 1   
    23   20   29 1   
    24   21   22 2   
    25   21   41 1   
    26   23   24 1   
    27   23   30 1   
    28   23   31 1   
    29   24   25 1   
    30   24   32 1   
    31   24   33 1   
    32   25   26 1   
    33   25   34 1   
    34   25   35 1   
    35   26   27 1   
    36   26   36 1   
    37   26   37 1   
    38   27   38 1   
    39   27   39 1   
    40   27   40 1   
    41   41   42 1   
    42   41   49 1   
    43   42   43 1   
    44   42   45 1   
    45   42   50 1   
    46   43   44 2   
    47   43   53 1   
    48   45   46 1   
    49   45   51 1   
    50   45   52 1   
    51   46   47 1   
    52   46   48 1   
    53   53   54 1   
    54   53   57 1   
    55   54   55 1   
    56   54   58 1   
    57   54   59 1   
    58   55   56 2   
    59   55   60 1   
    60   60   61 1   
    61   60   68 1   
    62   61   62 1   
    63   61   64 1   
    64   61   69 1   
    65   62   63 2   
    66   62   72 1   
    67   64   65 1   
    68   64   70 1   
    69   64   71 1   
    70   65   66 1   
    71   65   67 1   
    72   72   73 1   
    73   72   76 1   
    74   73   74 1   
    75   73   77 1   
    76   73   78 1   
    77   74   75 2   
    78   74   79 1   
    79   79   80 1   
    80   79   86 1   
    81   80   81 1   
    82   80   83 1   
    83   80   87 1   
    84   81   82 2   
    85   81   93 1   
    86   83   84 1   
    87   83   85 1   
    88   83   88 1   
    89   84   90 1   
    90   84   91 1   
    91   84   92 1   
    92   85   89 1   
    93   93   94 1   
    94   93  101 1   
    95   94   95 1   
    96   94   97 1   
    97   94  102 1   
    98   95   96 2   
    99   95  112 1   
   100   97   98 1   
   101   97   99 1   
   102   97  103 1   
   103   98  100 1   
   104   98  104 1   
   105   98  105 1   
   106   99  106 1   
   107   99  107 1   
   108   99  108 1   
   109  100  109 1   
   110  100  110 1   
   111  100  111 1   
   112  112  113 1   
   113  112  119 1   
   114  113  114 1   
   115  113  116 1   
   116  113  120 1   
   117  114  115 2   
   118  114  126 1   
   119  116  117 1   
   120  116  118 1   
   121  116  121 1   
   122  117  123 1   
   123  117  124 1   
   124  117  125 1   
   125  118  122 1   
   126  126  127 1   
   127  126  133 1   
   128  127  128 1   
   129  127  130 1   
   130  127  134 1   
   131  128  129 2   
   132  128  140 1   
   133  130  131 1   
   134  130  132 1   
   135  130  135 1   
   136  131  137 1   
   137  131  138 1   
   138  131  139 1   
   139  132  136 1   
   140  140  141 1   
   141  140  149 1   
   142  141  142 1   
   143  141  144 1   
   144  141  150 1   
   145  142  143 2   
   146  142  162 1   
   147  144  145 1   
   148  144  151 1   
   149  144  152 1   
   150  145  146 1   
   151  145  153 1   
   152  145  154 1   
   153  146  147 1   
   154  146  155 1   
   155  146  156 1   
   156  147  148 1   
   157  147  157 1   
   158  147  158 1   
   159  148  159 1   
   160  148  160 1   
   161  148  161 1   
   162  162  163 1   
   163  162  171 1   
   164  163  164 1   
   165  163  166 1   
   166  163  172 1   
   167  164  165 2   
   168  164  177 1   
   169  166  167 1   
   170  166  173 1   
   171  166  174 1   
   172  167  168 1   
   173  167  175 1   
   174  167  176 1   
   175  168  169 1   
   176  168  170 1   
   177  177  178 1   
   178  177  182 1   
   179  178  179 1   
   180  178  180 1   
   181  178  181 1   
   182  184  185 1   
   183  184  186 1   
   184  187  188 1   
   185  187  189 1   
@<TRIPOS>SUBSTRUCTURE
     1 MOL         1 TEMP              0 ****  ****    0 ROOT
