@<TRIPOS>MOLECULE
MOL
  189   185     1     0     0
SMALL
resp


@<TRIPOS>ATOM
      1 C1          0.4640   -3.8470    6.0850 c3        1 MOL     -0.397046
      2 C2          1.1500   -3.4340    4.7530 c         1 MOL      0.726311
      3 O1          1.3190   -2.2290    4.4650 o         1 MOL     -0.590981
      4 H1          0.1380   -2.9540    6.6180 hc        1 MOL      0.102191
      5 H2         -0.4000   -4.4760    5.8710 hc        1 MOL      0.102191
      6 H3          1.1710   -4.4000    6.7030 hc        1 MOL      0.102191
      7 N1          1.5220   -4.4100    3.9290 n         1 MOL     -0.655966
      8 C3          2.2680   -4.1320    2.6860 c3        1 MOL      0.131012
      9 C4          2.2860   -5.1350    1.5670 c         1 MOL      0.433845
     10 O2          2.7110   -6.3070    1.8030 o         1 MOL     -0.574597
     11 C5          3.7390   -3.6660    3.0190 c3        1 MOL     -0.009768
     12 C6          4.4250   -2.8960    1.8790 c         1 MOL      0.624745
     13 O3          5.6560   -3.0110    1.7530 o         1 MOL     -0.685938
     14 O4          3.7660   -2.2680    1.0340 o         1 MOL     -0.685938
     15 H4          1.2570   -5.3550    4.1600 hn        1 MOL      0.338329
     16 H5          1.7010   -3.2850    2.2780 h1        1 MOL      0.164473
     17 H6          4.3810   -4.5010    3.2870 hc        1 MOL      0.008670
     18 H7          3.8280   -3.0220    3.8990 hc        1 MOL      0.008670
     19 N2          1.7950   -4.8450    0.3290 n         1 MOL     -0.064931
     20 C7          1.8210   -5.7260   -0.9120 c3        1 MOL     -0.154186
     21 C8          2.9680   -5.5050   -1.8760 c         1 MOL      0.615512
     22 O5          3.3830   -6.4290   -2.6030 o         1 MOL     -0.595581
     23 C9          0.4500   -5.8440   -1.6090 c3        1 MOL      0.183712
     24 C10         0.0080   -4.3810   -1.9800 c3        1 MOL      0.116986
     25 C11        -0.7030   -6.4690   -0.7800 c3        1 MOL     -0.393606
     26 C12        -1.1290   -4.3010   -3.0050 c3        1 MOL     -0.374847
     27 H8          1.3320   -3.9500    0.2960 hn        1 MOL      0.010141
     28 H9          2.0730   -6.7000   -0.4810 h1        1 MOL      0.067685
     29 H10         0.6150   -6.3880   -2.5450 hc        1 MOL     -0.018571
     30 H11         0.8630   -3.8580   -2.3990 hc        1 MOL      0.045609
     31 H12        -0.3420   -3.9730   -1.0380 hc        1 MOL      0.045609
     32 H13        -1.6910   -6.2200   -1.1670 hc        1 MOL      0.091628
     33 H14        -0.5670   -7.5460   -0.6970 hc        1 MOL      0.091628
     34 H15        -0.7180   -6.0380    0.2230 hc        1 MOL      0.091628
     35 H16        -1.0280   -5.1040   -3.7370 hc        1 MOL      0.085358
     36 H17        -2.1110   -4.3070   -2.5340 hc        1 MOL      0.085358
     37 H18        -0.9550   -3.3680   -3.5390 hc        1 MOL      0.085358
     38 N3          3.4920   -4.2620   -1.8490 n         1 MOL     -0.415611
     39 C13         4.3000   -3.7940   -3.0130 c3        1 MOL      0.100713
     40 C14         5.5880   -3.0780   -2.7360 c         1 MOL      0.374693
     41 O6          6.5150   -2.8840   -3.5850 o         1 MOL     -0.554329
     42 C15         3.4400   -2.9770   -3.9190 c3        1 MOL     -0.325109
     43 C16         2.5120   -1.9180   -3.2620 c         1 MOL      0.779842
     44 O7          2.7300   -1.6410   -2.0700 o         1 MOL     -0.687828
     45 O8          1.6510   -1.3440   -3.9200 o         1 MOL     -0.687828
     46 H19         3.0520   -3.5520   -1.2720 hn        1 MOL      0.189484
     47 H20         4.6010   -4.5980   -3.6840 h1        1 MOL      0.098926
     48 H21         2.8240   -3.7400   -4.3710 hc        1 MOL      0.078022
     49 H22         4.1540   -2.5410   -4.6220 hc        1 MOL      0.078022
     50 N4          5.8840   -2.6620   -1.4740 n         1 MOL     -0.250068
     51 C17         7.0880   -1.9520   -0.9870 c3        1 MOL      0.104700
     52 C18         7.4180   -0.5220   -1.5620 c         1 MOL      0.372974
     53 O9          8.5900   -0.2660   -1.7940 o         1 MOL     -0.592407
     54 H23         5.2000   -2.8730   -0.7470 hn        1 MOL      0.193619
     55 H24         7.9660   -2.5790   -1.1000 h1        1 MOL      0.034713
     56 H25         7.1140   -1.8790    0.0940 h1        1 MOL      0.034713
     57 N5          6.4380    0.3860   -1.6570 n         1 MOL     -0.013238
     58 C19         6.6110    1.7370   -2.3530 c3        1 MOL     -0.031592
     59 C20         6.9770    2.8440   -1.3520 c         1 MOL      0.443989
     60 O10         7.1690    3.9730   -1.7460 o         1 MOL     -0.529273
     61 C21         5.3840    2.1270   -3.1800 c3        1 MOL     -0.216585
     62 C22         4.0220    1.9370   -2.4840 c         1 MOL      0.763503
     63 O11         4.0270    1.3740   -1.3050 o         1 MOL     -0.686722
     64 O12         2.9290    2.2790   -2.9970 o         1 MOL     -0.686722
     65 H26         5.4970    0.0950   -1.4120 hn        1 MOL      0.045905
     66 H27         7.5110    1.6460   -2.9750 h1        1 MOL      0.099862
     67 H28         5.4060    1.5000   -4.0760 hc        1 MOL      0.063606
     68 H29         5.4300    3.1630   -3.5130 hc        1 MOL      0.063606
     69 N6          6.9770    2.5310   -0.0370 n         1 MOL     -0.281907
     70 C23         7.0740    3.4620    1.0810 c3        1 MOL     -0.056651
     71 C24         5.8310    4.2690    1.3430 c         1 MOL      0.473149
     72 O13         5.9130    5.3240    1.9560 o         1 MOL     -0.582687
     73 H30         6.9050    1.5550    0.2070 hn        1 MOL      0.171997
     74 H31         7.8990    4.1490    0.8990 h1        1 MOL      0.073155
     75 H32         7.3570    3.0110    2.0310 h1        1 MOL      0.073155
     76 N7          4.6850    3.8010    0.8740 n         1 MOL     -0.297832
     77 C25         3.3410    4.4380    0.9910 c3        1 MOL      0.078238
     78 C26         2.3660    3.3180    1.4340 c         1 MOL      0.414123
     79 O14         2.6640    2.1150    1.2870 o         1 MOL     -0.566808
     80 C27         3.0610    5.1090   -0.3170 c3        1 MOL     -0.117596
     81 C28         4.0120    6.3860   -0.3840 c3        1 MOL     -0.159084
     82 C29         3.4930    7.4250   -1.3640 c         1 MOL      0.636407
     83 N8          3.7060    7.2410   -2.6070 n         1 MOL     -0.773418
     84 O15         2.9630    8.4960   -1.0050 o         1 MOL     -0.609690
     85 H33         4.6650    2.9980    0.2570 hn        1 MOL      0.299015
     86 H34         3.3640    5.1320    1.8360 h1        1 MOL      0.073154
     87 H35         2.0210    5.4370   -0.3760 hc        1 MOL      0.061785
     88 H36         3.3860    4.4800   -1.1560 hc        1 MOL      0.061785
     89 H37         5.0530    6.1410   -0.6110 hc        1 MOL      0.069247
     90 H38         3.9350    6.8010    0.6150 hc        1 MOL      0.069247
     91 H39         3.8300    6.2700   -2.8680 hn        1 MOL      0.366248
     92 H40         3.4230    7.9810   -3.2170 hn        1 MOL      0.366248
     93 N9          1.2100    3.7510    1.9980 n         1 MOL     -0.423421
     94 C30         0.0580    2.8890    2.3860 c3        1 MOL      0.031313
     95 C31        -1.1510    3.1820    1.4230 c         1 MOL      0.553743
     96 O16        -1.4270    4.3580    1.1100 o         1 MOL     -0.580791
     97 C32        -0.2070    3.0930    3.8730 c3        1 MOL      0.088059
     98 C33        -0.9460    4.3580    4.2000 c3        1 MOL     -0.180219
     99 C34        -0.9130    1.9430    4.4420 c3        1 MOL     -0.180219
    100 H41         1.0100    4.7320    2.1330 hn        1 MOL      0.290213
    101 H42         0.3520    1.8510    2.2320 h1        1 MOL      0.107817
    102 H43         0.7420    3.1560    4.3990 hc        1 MOL      0.027490
    103 H44        -0.7930    4.4370    5.2720 hc        1 MOL      0.036765
    104 H45        -0.4710    5.1800    3.6560 hc        1 MOL      0.036765
    105 H46        -2.0080    4.2450    3.9780 hc        1 MOL      0.036765
    106 H47        -1.7770    1.5930    3.8800 hc        1 MOL      0.036765
    107 H48        -0.2950    1.0760    4.6780 hc        1 MOL      0.036765
    108 H49        -1.2920    2.1970    5.4330 hc        1 MOL      0.036765
    109 N10        -1.7570    2.1410    0.8720 n         1 MOL     -0.243399
    110 C35        -2.8910    2.2630   -0.0030 c3        1 MOL      0.099558
    111 C36        -4.2470    2.1550    0.7330 c         1 MOL      0.150138
    112 O17        -4.2840    1.6730    1.9090 o         1 MOL     -0.291387
    113 C37        -2.6540    1.2200   -1.0900 c3        1 MOL     -0.348006
    114 C38        -3.7750    1.4130   -2.1400 c         1 MOL      0.548602
    115 N11        -3.6520    2.4200   -3.0130 n         1 MOL     -0.688915
    116 O18        -4.9110    0.8500   -2.1310 o         1 MOL     -0.419071
    117 H50        -1.3780    1.2180    1.0030 hn        1 MOL      0.185801
    118 H51        -2.8190    3.2470   -0.4780 h1        1 MOL      0.041077
    119 H52        -2.7450    0.2630   -0.5830 hc        1 MOL      0.161450
    120 H53        -1.6780    1.2300   -1.5730 hc        1 MOL      0.161450
    121 H54        -2.7740    2.9240   -2.9740 hn        1 MOL      0.341225
    122 H55        -4.4550    2.7220   -3.5390 hn        1 MOL      0.341225
    123 N12        -5.3120    2.6290    0.1330 n         1 MOL     -0.111478
    124 C39        -6.6940    2.4820    0.7220 c3        1 MOL      0.030303
    125 C40        -7.1090    1.0350    1.0380 c         1 MOL      0.405489
    126 O19        -7.9300    0.7480    1.9080 o         1 MOL     -0.544215
    127 C41        -7.6760    3.2400   -0.1850 c3        1 MOL     -0.027106
    128 C42        -8.0860    2.6120   -1.5360 ca        1 MOL     -0.039098
    129 C43        -9.1410    1.7310   -1.6850 ca        1 MOL     -0.103705
    130 C44        -7.2040    2.7870   -2.6860 ca        1 MOL     -0.103705
    131 C45        -9.5040    1.1650   -2.9300 ca        1 MOL     -0.391380
    132 C46        -7.6130    2.3170   -3.8960 ca        1 MOL     -0.391380
    133 C47        -8.6610    1.4180   -4.0290 ca        1 MOL      0.443371
    134 O20        -8.9260    0.8770   -5.2430 oh        1 MOL     -0.471845
    135 H56        -5.1020    3.2800   -0.6080 hn        1 MOL      0.190381
    136 H57        -6.6470    2.9920    1.6860 h1        1 MOL      0.057792
    137 H58        -7.2580    4.2430   -0.3230 hc        1 MOL      0.017712
    138 H59        -8.5720    3.3920    0.4080 hc        1 MOL      0.017712
    139 H60        -9.6750    1.3070   -0.8440 ha        1 MOL      0.119514
    140 H61        -6.3180    3.3970   -2.6310 ha        1 MOL      0.119514
    141 H62       -10.2780    0.4090   -2.9850 ha        1 MOL      0.181698
    142 H63        -7.0750    2.5790   -4.7930 ha        1 MOL      0.181698
    143 H64        -9.7870    0.4690   -5.1680 ho        1 MOL      0.359514
    144 N13        -6.5320    0.1030    0.2810 n         1 MOL     -0.117860
    145 C48        -6.6630   -1.3640    0.4630 c3        1 MOL     -0.167192
    146 C49        -5.7130   -2.0020    1.4890 c         1 MOL      0.444442
    147 O21        -5.8680   -3.1240    1.9750 o         1 MOL     -0.541961
    148 C50        -6.5640   -2.0340   -0.8970 c3        1 MOL      0.036685
    149 C51        -7.7810   -1.7870   -1.7920 c3        1 MOL     -0.233110
    150 C52        -7.5790   -2.4840   -3.1640 c         1 MOL      0.666635
    151 O22        -7.8540   -3.6850   -3.2810 o         1 MOL     -0.710111
    152 O23        -7.3810   -1.7390   -4.2050 o         1 MOL     -0.710111
    153 H65        -5.8620    0.4220   -0.4040 hn        1 MOL      0.190590
    154 H66        -7.6800   -1.5020    0.8310 h1        1 MOL      0.117523
    155 H67        -6.4020   -3.0950   -0.7470 hc        1 MOL      0.021715
    156 H68        -5.6410   -1.7100   -1.3720 hc        1 MOL      0.021715
    157 H69        -7.9000   -0.7200   -1.9740 hc        1 MOL      0.057661
    158 H70        -8.6790   -2.1190   -1.2580 hc        1 MOL      0.057661
    159 N14        -4.6740   -1.2660    1.8760 n         1 MOL     -0.096273
    160 C53        -3.6790   -1.5910    2.9570 c3        1 MOL     -0.121215
    161 C54        -3.9840   -0.9410    4.2990 c         1 MOL      0.490014
    162 O24        -3.8800   -1.5360    5.3620 o         1 MOL     -0.569513
    163 C55        -2.2790   -1.1610    2.5040 c3        1 MOL     -0.027555
    164 C56        -1.6650   -1.8960    1.3170 c3        1 MOL     -0.057246
    165 C57        -0.3380   -1.3620    0.8500 c         1 MOL      0.897551
    166 O25         0.5290   -2.1490    0.5510 o         1 MOL     -0.816249
    167 O26        -0.0140   -0.1810    0.8670 o         1 MOL     -0.816249
    168 H71        -4.5710   -0.3450    1.4720 hn        1 MOL      0.030898
    169 H72        -3.7130   -2.6670    3.1110 h1        1 MOL      0.103268
    170 H73        -1.5010   -1.2390    3.2700 hc        1 MOL      0.050293
    171 H74        -2.2730   -0.0760    2.3720 hc        1 MOL      0.050293
    172 H75        -2.2940   -1.8880    0.4340 hc        1 MOL      0.015961
    173 H76        -1.5590   -2.9440    1.6080 hc        1 MOL      0.015961
    174 N15        -4.3860    0.3200    4.2850 n         1 MOL     -0.159449
    175 C58        -4.4620    1.2160    5.4480 c3        1 MOL     -0.138080
    176 H77        -4.4000    0.6280    6.3630 h1        1 MOL      0.067872
    177 H78        -3.6360    1.9260    5.4150 h1        1 MOL      0.067872
    178 H79        -5.4080    1.7580    5.4280 h1        1 MOL      0.067872
    179 H80        -4.4380    0.6980    3.3430 hn        1 MOL      0.067429
    180 Ca1         2.5120   -0.1980    0.1800 Ca        1 MOL      1.786028
    181 O27         2.1580   -0.4610    2.8380 oh        1 MOL     -0.888755
    182 H81         2.5330    0.3070    3.2800 ho        1 MOL      0.407608
    183 H82         1.6480   -0.8990    3.5200 ho        1 MOL      0.407608
    184 O28         1.0140    0.7020   -1.7810 oh        1 MOL     -0.888755
    185 H83         1.7080    1.3040   -2.0660 ho        1 MOL      0.407608
    186 H84         1.0280   -0.0000   -2.4260 ho        1 MOL      0.407608
    187 O29         5.0660    0.2010    1.2190 oh        1 MOL     -0.888755
    188 H85         5.1120   -0.7570    1.2600 ho        1 MOL      0.407608
    189 H86         5.8080    0.4940    1.7480 ho        1 MOL      0.407608
@<TRIPOS>BOND
     1    1    2 1   
     2    1    4 1   
     3    1    5 1   
     4    1    6 1   
     5    2    3 2   
     6    2    7 1   
     7    7    8 1   
     8    7   15 1   
     9    8    9 1   
    10    8   11 1   
    11    8   16 1   
    12    9   10 2   
    13    9   19 1   
    14   11   12 1   
    15   11   17 1   
    16   11   18 1   
    17   12   13 1   
    18   12   14 1   
    19   19   20 1   
    20   19   27 1   
    21   20   21 1   
    22   20   23 1   
    23   20   28 1   
    24   21   22 2   
    25   21   38 1   
    26   23   24 1   
    27   23   25 1   
    28   23   29 1   
    29   24   26 1   
    30   24   30 1   
    31   24   31 1   
    32   25   32 1   
    33   25   33 1   
    34   25   34 1   
    35   26   35 1   
    36   26   36 1   
    37   26   37 1   
    38   38   39 1   
    39   38   46 1   
    40   39   40 1   
    41   39   42 1   
    42   39   47 1   
    43   40   41 2   
    44   40   50 1   
    45   42   43 1   
    46   42   48 1   
    47   42   49 1   
    48   43   44 1   
    49   43   45 1   
    50   50   51 1   
    51   50   54 1   
    52   51   52 1   
    53   51   55 1   
    54   51   56 1   
    55   52   53 2   
    56   52   57 1   
    57   57   58 1   
    58   57   65 1   
    59   58   59 1   
    60   58   61 1   
    61   58   66 1   
    62   59   60 2   
    63   59   69 1   
    64   61   62 1   
    65   61   67 1   
    66   61   68 1   
    67   62   63 1   
    68   62   64 1   
    69   69   70 1   
    70   69   73 1   
    71   70   71 1   
    72   70   74 1   
    73   70   75 1   
    74   71   72 2   
    75   71   76 1   
    76   76   77 1   
    77   76   85 1   
    78   77   78 1   
    79   77   80 1   
    80   77   86 1   
    81   78   79 2   
    82   78   93 1   
    83   80   81 1   
    84   80   87 1   
    85   80   88 1   
    86   81   82 1   
    87   81   89 1   
    88   81   90 1   
    89   82   83 1   
    90   82   84 2   
    91   83   91 1   
    92   83   92 1   
    93   93   94 1   
    94   93  100 1   
    95   94   95 1   
    96   94   97 1   
    97   94  101 1   
    98   95   96 2   
    99   95  109 1   
   100   97   98 1   
   101   97   99 1   
   102   97  102 1   
   103   98  103 1   
   104   98  104 1   
   105   98  105 1   
   106   99  106 1   
   107   99  107 1   
   108   99  108 1   
   109  109  110 1   
   110  109  117 1   
   111  110  111 1   
   112  110  113 1   
   113  110  118 1   
   114  111  112 2   
   115  111  123 1   
   116  113  114 1   
   117  113  119 1   
   118  113  120 1   
   119  114  115 1   
   120  114  116 2   
   121  115  121 1   
   122  115  122 1   
   123  123  124 1   
   124  123  135 1   
   125  124  125 1   
   126  124  127 1   
   127  124  136 1   
   128  125  126 2   
   129  125  144 1   
   130  127  128 1   
   131  127  137 1   
   132  127  138 1   
   133  128  129 ar  
   134  128  130 ar  
   135  129  131 ar  
   136  129  139 1   
   137  130  132 ar  
   138  130  140 1   
   139  131  133 ar  
   140  131  141 1   
   141  132  133 ar  
   142  132  142 1   
   143  133  134 1   
   144  134  143 1   
   145  144  145 1   
   146  144  153 1   
   147  145  146 1   
   148  145  148 1   
   149  145  154 1   
   150  146  147 2   
   151  146  159 1   
   152  148  149 1   
   153  148  155 1   
   154  148  156 1   
   155  149  150 1   
   156  149  157 1   
   157  149  158 1   
   158  150  151 1   
   159  150  152 1   
   160  159  160 1   
   161  159  168 1   
   162  160  161 1   
   163  160  163 1   
   164  160  169 1   
   165  161  162 2   
   166  161  174 1   
   167  163  164 1   
   168  163  170 1   
   169  163  171 1   
   170  164  165 1   
   171  164  172 1   
   172  164  173 1   
   173  165  166 1   
   174  165  167 1   
   175  174  175 1   
   176  174  179 1   
   177  175  176 1   
   178  175  177 1   
   179  175  178 1   
   180  181  182 1   
   181  181  183 1   
   182  184  185 1   
   183  184  186 1   
   184  187  188 1   
   185  187  189 1   
@<TRIPOS>SUBSTRUCTURE
     1 MOL         1 TEMP              0 ****  ****    0 ROOT
