@<TRIPOS>MOLECULE
MOL
  175   173     1     0     0
SMALL
resp


@<TRIPOS>ATOM
      1 C1         -0.3700   -3.4090    5.6260 c3        1 MOL     -0.427526
      2 C2          0.1830   -3.2840    4.2260 c         1 MOL      0.759055
      3 O1         -0.5840   -3.5610    3.3160 o         1 MOL     -0.569534
      4 H1         -0.8240   -2.4640    5.9230 hc        1 MOL      0.103509
      5 H2         -1.1240   -4.1960    5.6510 hc        1 MOL      0.103509
      6 H3          0.4360   -3.6570    6.3150 hc        1 MOL      0.103509
      7 N1          1.4260   -2.9640    4.0660 n         1 MOL     -0.752516
      8 C3          2.0730   -2.9400    2.7390 c3        1 MOL      0.496515
      9 C4          2.0490   -4.3070    1.9670 c         1 MOL      0.475552
     10 O2          2.0380   -5.3780    2.5310 o         1 MOL     -0.573221
     11 C5          3.5850   -2.4840    2.8820 c3        1 MOL     -0.529723
     12 C6          4.3710   -2.3210    1.6020 c         1 MOL      0.728457
     13 O3          3.7970   -1.8040    0.6390 o         1 MOL     -0.638960
     14 O4          5.4390   -2.9300    1.5880 o         1 MOL     -0.638960
     15 H4          1.8840   -2.8070    4.9530 hn        1 MOL      0.348167
     16 H5          1.5940   -2.3370    1.9700 h1        1 MOL     -0.075593
     17 H6          3.9900   -3.3190    3.4560 hc        1 MOL      0.099378
     18 H7          3.5330   -1.5320    3.3970 hc        1 MOL      0.099378
     19 N2          2.0850   -4.2430    0.6370 n         1 MOL     -0.364076
     20 C7          2.3550   -5.3510   -0.2600 c3        1 MOL      0.247003
     21 C8          3.6520   -5.2420   -1.1560 c         1 MOL      0.370464
     22 O5          4.1440   -6.2430   -1.7240 o         1 MOL     -0.579854
     23 C9          1.0810   -5.5040   -1.2110 c3        1 MOL     -0.170301
     24 H8          1.9560   -3.3450    0.1880 hn        1 MOL      0.378114
     25 H9          2.3400   -6.3240    0.2390 h1        1 MOL      0.027134
     26 H10         0.1930   -5.6660   -0.5840 hc        1 MOL      0.032291
     27 H11         0.9450   -4.5090   -1.6490 hc        1 MOL      0.032291
     28 H12         1.2520   -6.3140   -1.9140 hc        1 MOL      0.032291
     29 N3          4.2950   -4.0800   -1.3210 n         1 MOL     -0.156758
     30 C10         5.2080   -3.6590   -2.4010 c3        1 MOL      0.191076
     31 C11         6.3380   -2.7480   -2.0210 c         1 MOL      0.310932
     32 O6          7.3320   -2.8200   -2.7900 o         1 MOL     -0.577681
     33 C12         4.3890   -3.0030   -3.5470 c3        1 MOL     -0.086442
     34 C13         3.4610   -1.8170   -3.0720 c         1 MOL      0.650120
     35 O7          3.7620   -1.0320   -2.1540 o         1 MOL     -0.702970
     36 O8          2.3660   -1.6050   -3.7120 o         1 MOL     -0.702970
     37 H13         3.9820   -3.3640   -0.6890 hn        1 MOL     -0.024655
     38 H14         5.7210   -4.5330   -2.7970 h1        1 MOL      0.046183
     39 H15         3.7560   -3.7730   -3.9960 hc        1 MOL      0.017121
     40 H16         5.1210   -2.7730   -4.3250 hc        1 MOL      0.017121
     41 N4          6.3560   -1.9300   -0.9840 n         1 MOL     -0.023447
     42 C14         7.5660   -1.1850   -0.6500 c3        1 MOL     -0.071158
     43 C15         7.6710    0.3140   -1.0830 c         1 MOL      0.377820
     44 O9          8.7600    0.8950   -1.0270 o         1 MOL     -0.563733
     45 H17         5.4860   -1.8490   -0.4750 hn        1 MOL      0.062016
     46 H18         8.4070   -1.7870   -0.9950 h1        1 MOL      0.073731
     47 H19         7.6910   -1.2530    0.4400 h1        1 MOL      0.073731
     48 N5          6.5610    0.8150   -1.6010 n         1 MOL     -0.074184
     49 C16         6.3690    2.2110   -2.0470 c3        1 MOL     -0.079586
     50 C17         6.2410    3.3070   -0.9520 c         1 MOL      0.420211
     51 O10         6.2650    4.5530   -1.2550 o         1 MOL     -0.520846
     52 C18         5.1950    2.0770   -3.1330 c3        1 MOL     -0.159316
     53 C19         3.8140    1.9150   -2.5490 c         1 MOL      0.747807
     54 N6          2.7820    1.9580   -3.3160 n         1 MOL     -0.705541
     55 O11         3.6590    1.9740   -1.3520 o         1 MOL     -0.603765
     56 H20         5.7680    0.1890   -1.6340 hn        1 MOL      0.099135
     57 H21         7.2320    2.4080   -2.6710 h1        1 MOL      0.114897
     58 H22         5.3500    1.2290   -3.8000 hc        1 MOL      0.048928
     59 H23         5.1050    2.9860   -3.7290 hc        1 MOL      0.048928
     60 H24         2.8930    1.8640   -4.3120 hn        1 MOL      0.343582
     61 H25         1.8300    1.9750   -2.9790 hn        1 MOL      0.343582
     62 N7          6.1620    2.9230    0.3360 n         1 MOL     -0.220040
     63 C20         6.0720    3.8610    1.4500 c3        1 MOL     -0.275890
     64 C21         4.6980    4.5080    1.6470 c         1 MOL      0.589118
     65 O12         4.6570    5.3480    2.4880 o         1 MOL     -0.557541
     66 H26         6.1890    1.9350    0.5320 hn        1 MOL      0.229883
     67 H27         6.8500    4.6170    1.3090 h1        1 MOL      0.127560
     68 H28         6.3130    3.3360    2.3730 h1        1 MOL      0.127560
     69 N8          3.6350    4.0550    0.9450 n         1 MOL     -0.382788
     70 C22         2.2540    4.5720    1.1140 c3        1 MOL     -0.073924
     71 C23         1.2020    3.4480    1.2750 c         1 MOL      0.698262
     72 O13         1.2960    2.4890    0.4840 o         1 MOL     -0.658778
     73 C24         1.7500    5.5600    0.0570 c3        1 MOL      0.412432
     74 C25         2.3720    6.9100    0.2760 c3        1 MOL     -0.507586
     75 O14         2.0910    5.2700   -1.2830 oh        1 MOL     -0.567577
     76 H29         3.8080    3.3360    0.2620 hn        1 MOL      0.300327
     77 H30         2.2740    5.2670    1.9390 h1        1 MOL      0.067349
     78 H31         0.6670    5.6500    0.1590 h1        1 MOL      0.020011
     79 H32         2.1520    4.3120   -1.3240 ho        1 MOL      0.344579
     80 H33         3.4620    6.8930    0.2520 hc        1 MOL      0.129895
     81 H34         1.9860    7.6220   -0.4430 hc        1 MOL      0.129895
     82 H35         2.2780    7.3490    1.2680 hc        1 MOL      0.129895
     83 N9          0.2240    3.5930    2.1680 n         1 MOL     -0.785933
     84 C26        -0.9780    2.7170    2.1510 c3        1 MOL      0.128099
     85 C27        -1.7180    3.0920    0.8500 c         1 MOL      0.473424
     86 O15        -2.1650    4.2720    0.7080 o         1 MOL     -0.576273
     87 C28        -1.8550    2.7750    3.4580 c3        1 MOL      0.389928
     88 C29        -0.9720    2.7620    4.7110 c3        1 MOL      0.086814
     89 C30        -2.8490    1.6530    3.2270 c3        1 MOL     -0.531214
     90 C31        -1.7340    2.7150    6.0700 c3        1 MOL     -0.180611
     91 H36         0.2470    4.4450    2.7110 hn        1 MOL      0.346498
     92 H37        -0.6680    1.6660    2.1280 h1        1 MOL     -0.014410
     93 H38        -2.3490    3.7430    3.4900 hc        1 MOL     -0.065726
     94 H39        -0.4240    3.7000    4.8530 hc        1 MOL     -0.025464
     95 H40        -0.3290    1.8940    4.5980 hc        1 MOL     -0.025464
     96 H41        -2.4480    0.6460    3.1120 hc        1 MOL      0.101256
     97 H42        -3.5370    1.5440    4.0670 hc        1 MOL      0.101256
     98 H43        -3.3320    1.9640    2.3000 hc        1 MOL      0.101256
     99 H44        -2.5140    3.4760    5.9750 hc        1 MOL      0.037189
    100 H45        -2.3110    1.7990    6.1910 hc        1 MOL      0.037189
    101 H46        -1.0930    2.8730    6.9330 hc        1 MOL      0.037189
    102 N10        -1.9380    2.1030   -0.0340 n         1 MOL     -0.103620
    103 C32        -2.7200    2.0660   -1.2330 c3        1 MOL      0.014995
    104 C33        -4.1710    1.6160   -0.8900 c         1 MOL      0.470084
    105 O16        -4.3940    0.9940    0.1600 o         1 MOL     -0.426809
    106 C34        -2.0700    1.2210   -2.3760 c3        1 MOL     -0.374458
    107 C35        -0.6310    1.5110   -2.7070 c         1 MOL      0.777030
    108 O17         0.2920    1.0260   -2.0130 o         1 MOL     -0.683867
    109 O18        -0.3300    2.2080   -3.6800 o         1 MOL     -0.683867
    110 H47        -1.4160    1.2570    0.1380 hn        1 MOL      0.169582
    111 H48        -2.7430    3.1060   -1.5600 h1        1 MOL      0.067646
    112 H49        -2.6670    1.2230   -3.2820 hc        1 MOL      0.108802
    113 H50        -2.2250    0.1720   -2.1500 hc        1 MOL      0.108802
    114 N11        -5.0650    1.7160   -1.8590 n         1 MOL     -0.660971
    115 C36        -6.5020    1.3580   -1.5720 c3        1 MOL      0.395143
    116 C37        -6.7330   -0.1250   -1.2120 c         1 MOL      0.268423
    117 O19        -7.4690   -0.3240   -0.2420 o         1 MOL     -0.492321
    118 C38        -7.3840    1.6970   -2.7390 c3        1 MOL     -0.135914
    119 C39        -8.8630    1.6870   -2.4490 ca        1 MOL      0.095185
    120 C40        -9.4570    2.3380   -1.3560 ca        1 MOL     -0.222561
    121 C41        -9.6320    0.7330   -3.1540 ca        1 MOL     -0.222561
    122 C42       -10.8160    2.1190   -1.0060 ca        1 MOL     -0.028899
    123 C43       -10.9410    0.4970   -2.8280 ca        1 MOL     -0.028899
    124 C44       -11.5540    1.2320   -1.7430 ca        1 MOL     -0.169108
    125 H51        -4.8300    2.1990   -2.7170 hn        1 MOL      0.341093
    126 H52        -6.9070    1.8430   -0.6910 h1        1 MOL      0.047470
    127 H53        -7.1290    1.2000   -3.6750 hc        1 MOL      0.041130
    128 H54        -7.2090    2.7620   -2.9110 hc        1 MOL      0.041130
    129 H55        -8.9010    3.0410   -0.7480 ha        1 MOL      0.128405
    130 H56        -9.1530    0.0910   -3.8880 ha        1 MOL      0.128405
    131 H57       -11.3320    2.8260   -0.3780 ha        1 MOL      0.090312
    132 H58       -11.5350   -0.2300   -3.3530 ha        1 MOL      0.090312
    133 H59       -12.5980    1.0610   -1.5030 ha        1 MOL      0.105676
    134 N12        -6.1880   -1.2070   -1.8340 n         1 MOL     -0.008673
    135 C45        -6.4380   -2.5670   -1.3530 c3        1 MOL      0.220639
    136 C46        -5.7760   -2.8020    0.0940 c         1 MOL      0.215047
    137 O20        -6.2540   -3.6010    0.8790 o         1 MOL     -0.495561
    138 C47        -6.0070   -3.5060   -2.4090 c3        1 MOL     -0.191006
    139 C48        -5.1790   -2.6570   -3.4090 c3        1 MOL     -0.037227
    140 C49        -5.5890   -1.1630   -3.1680 c3        1 MOL     -0.121005
    141 H60        -7.5040   -2.7140   -1.2490 h1        1 MOL      0.011630
    142 H61        -5.4440   -4.3530   -2.0110 hc        1 MOL      0.070089
    143 H62        -6.9560   -3.7890   -2.8650 hc        1 MOL      0.070089
    144 H63        -4.1300   -2.8020   -3.1310 hc        1 MOL      0.047680
    145 H64        -5.2890   -3.0410   -4.4200 hc        1 MOL      0.047680
    146 H65        -4.7230   -0.5010   -3.0880 h1        1 MOL      0.054696
    147 H66        -6.3270   -0.8030   -3.8780 h1        1 MOL      0.054696
    148 N13        -4.6780   -2.1450    0.4080 n         1 MOL     -0.099925
    149 C50        -3.9670   -2.2900    1.7250 c3        1 MOL     -0.136576
    150 C51        -4.7740   -1.6980    2.9000 c         1 MOL      0.453385
    151 O21        -4.6370   -2.1790    4.0100 o         1 MOL     -0.537352
    152 C52        -2.6650   -1.5920    1.4370 c3        1 MOL      0.045109
    153 C53        -1.6800   -2.4340    0.5080 c3        1 MOL     -0.173562
    154 C54        -0.3110   -1.7300    0.3070 c         1 MOL      0.509698
    155 O22         0.5110   -2.1240   -0.5630 o         1 MOL     -0.667655
    156 O23        -0.0580   -0.6650    0.9080 o         1 MOL     -0.667655
    157 H67        -4.2110   -1.5320   -0.2430 hn        1 MOL      0.154482
    158 H68        -3.7680   -3.3240    1.9960 h1        1 MOL      0.139738
    159 H69        -2.1780   -1.4920    2.4120 hc        1 MOL      0.056228
    160 H70        -2.8330   -0.6020    1.0150 hc        1 MOL      0.056228
    161 H71        -2.1230   -2.5820   -0.4730 hc        1 MOL      0.074894
    162 H72        -1.5420   -3.3870    1.0210 hc        1 MOL      0.074894
    163 N14        -5.5400   -0.6040    2.6180 n         1 MOL      0.011836
    164 C55        -6.4330   -0.0500    3.5440 c3        1 MOL     -0.170433
    165 H73        -6.4830    1.0300    3.3990 h1        1 MOL      0.055614
    166 H74        -7.4230   -0.4810    3.3970 h1        1 MOL      0.055614
    167 H75        -6.0890   -0.2660    4.5560 h1        1 MOL      0.055614
    168 H76        -5.5360   -0.2070    1.6940 hn        1 MOL      0.084496
    169 Ca1         2.0400    0.0020   -0.3730 Ca        1 MOL      1.674904
    170 O24         1.6810    0.2610    2.6690 oh        1 MOL     -0.759039
    171 H77         1.5240   -0.0020    3.5830 ho        1 MOL      0.381522
    172 H78         0.8880    0.0150    2.2140 ho        1 MOL      0.381522
    173 O25         3.8480    1.1930    1.3300 oh        1 MOL     -0.759039
    174 H79         3.2770    1.1740    2.0920 ho        1 MOL      0.381522
    175 H80         4.7000    0.8730    1.6500 ho        1 MOL      0.381522
@<TRIPOS>BOND
     1    1    2 1   
     2    1    4 1   
     3    1    5 1   
     4    1    6 1   
     5    2    3 2   
     6    2    7 1   
     7    7    8 1   
     8    7   15 1   
     9    8    9 1   
    10    8   11 1   
    11    8   16 1   
    12    9   10 2   
    13    9   19 1   
    14   11   12 1   
    15   11   17 1   
    16   11   18 1   
    17   12   13 1   
    18   12   14 1   
    19   19   20 1   
    20   19   24 1   
    21   20   21 1   
    22   20   23 1   
    23   20   25 1   
    24   21   22 2   
    25   21   29 1   
    26   23   26 1   
    27   23   27 1   
    28   23   28 1   
    29   29   30 1   
    30   29   37 1   
    31   30   31 1   
    32   30   33 1   
    33   30   38 1   
    34   31   32 2   
    35   31   41 1   
    36   33   34 1   
    37   33   39 1   
    38   33   40 1   
    39   34   35 1   
    40   34   36 1   
    41   41   42 1   
    42   41   45 1   
    43   42   43 1   
    44   42   46 1   
    45   42   47 1   
    46   43   44 2   
    47   43   48 1   
    48   48   49 1   
    49   48   56 1   
    50   49   50 1   
    51   49   52 1   
    52   49   57 1   
    53   50   51 2   
    54   50   62 1   
    55   52   53 1   
    56   52   58 1   
    57   52   59 1   
    58   53   54 1   
    59   53   55 2   
    60   54   60 1   
    61   54   61 1   
    62   62   63 1   
    63   62   66 1   
    64   63   64 1   
    65   63   67 1   
    66   63   68 1   
    67   64   65 2   
    68   64   69 1   
    69   69   70 1   
    70   69   76 1   
    71   70   71 1   
    72   70   73 1   
    73   70   77 1   
    74   71   72 2   
    75   71   83 1   
    76   73   74 1   
    77   73   75 1   
    78   73   78 1   
    79   74   80 1   
    80   74   81 1   
    81   74   82 1   
    82   75   79 1   
    83   83   84 1   
    84   83   91 1   
    85   84   85 1   
    86   84   87 1   
    87   84   92 1   
    88   85   86 2   
    89   85  102 1   
    90   87   88 1   
    91   87   89 1   
    92   87   93 1   
    93   88   90 1   
    94   88   94 1   
    95   88   95 1   
    96   89   96 1   
    97   89   97 1   
    98   89   98 1   
    99   90   99 1   
   100   90  100 1   
   101   90  101 1   
   102  102  103 1   
   103  102  110 1   
   104  103  104 1   
   105  103  106 1   
   106  103  111 1   
   107  104  105 2   
   108  104  114 1   
   109  106  107 1   
   110  106  112 1   
   111  106  113 1   
   112  107  108 1   
   113  107  109 1   
   114  114  115 1   
   115  114  125 1   
   116  115  116 1   
   117  115  118 1   
   118  115  126 1   
   119  116  117 2   
   120  116  134 1   
   121  118  119 1   
   122  118  127 1   
   123  118  128 1   
   124  119  120 ar  
   125  119  121 ar  
   126  120  122 ar  
   127  120  129 1   
   128  121  123 ar  
   129  121  130 1   
   130  122  124 ar  
   131  122  131 1   
   132  123  124 ar  
   133  123  132 1   
   134  124  133 1   
   135  134  135 1   
   136  134  140 1   
   137  135  136 1   
   138  135  138 1   
   139  135  141 1   
   140  136  137 2   
   141  136  148 1   
   142  138  139 1   
   143  138  142 1   
   144  138  143 1   
   145  139  140 1   
   146  139  144 1   
   147  139  145 1   
   148  140  146 1   
   149  140  147 1   
   150  148  149 1   
   151  148  157 1   
   152  149  150 1   
   153  149  152 1   
   154  149  158 1   
   155  150  151 2   
   156  150  163 1   
   157  152  153 1   
   158  152  159 1   
   159  152  160 1   
   160  153  154 1   
   161  153  161 1   
   162  153  162 1   
   163  154  155 1   
   164  154  156 1   
   165  163  164 1   
   166  163  168 1   
   167  164  165 1   
   168  164  166 1   
   169  164  167 1   
   170  170  171 1   
   171  170  172 1   
   172  173  174 1   
   173  173  175 1   
@<TRIPOS>SUBSTRUCTURE
     1 MOL         1 TEMP              0 ****  ****    0 ROOT
