@<TRIPOS>MOLECULE
MOL
  182   178     1     0     0
SMALL
resp


@<TRIPOS>ATOM
      1 C1          2.0780    3.2710    5.6350 c3        1 MOL     -0.263049
      2 C2          1.5820    2.7700    4.2950 c         1 MOL      0.675822
      3 O1          2.4570    2.6460    3.3710 o         1 MOL     -0.631715
      4 H1          1.5670    4.2010    5.8860 hc        1 MOL      0.064436
      5 H2          1.8720    2.5240    6.4020 hc        1 MOL      0.064436
      6 H3          3.1520    3.4500    5.5810 hc        1 MOL      0.064436
      7 N1          0.2920    2.5640    4.1480 n         1 MOL     -0.457040
      8 C3         -0.4140    2.4710    2.8710 c3        1 MOL      0.096624
      9 C4         -0.3830    3.8000    2.0630 c         1 MOL      0.321625
     10 O2         -1.1330    4.8160    2.3870 o         1 MOL     -0.530164
     11 C5         -1.8470    1.9140    3.0190 c3        1 MOL      0.044043
     12 C6         -2.5620    1.6600    1.7040 c         1 MOL      0.670681
     13 O3         -3.6860    1.0340    1.7850 o         1 MOL     -0.724065
     14 O4         -1.9960    1.8720    0.6080 o         1 MOL     -0.724065
     15 H4         -0.2630    2.7070    4.9820 hn        1 MOL      0.288073
     16 H5          0.1270    1.6900    2.3280 h1        1 MOL     -0.035312
     17 H6         -2.4220    2.5210    3.7180 hc        1 MOL      0.002081
     18 H7         -1.7200    1.0150    3.6250 hc        1 MOL      0.002081
     19 N2          0.4220    3.8390    0.9750 n         1 MOL     -0.066315
     20 C7          0.8610    5.0650    0.3770 c3        1 MOL     -0.023484
     21 C8         -0.1380    5.6700   -0.5640 c         1 MOL      0.511639
     22 O5         -0.0320    6.7890   -0.8500 o         1 MOL     -0.543042
     23 C9          2.2410    4.7670   -0.1490 c3        1 MOL     -0.325829
     24 C10         3.0540    6.0700    0.0400 c3        1 MOL      0.007256
     25 C11         4.4380    5.7770   -0.5810 c3        1 MOL      0.059892
     26 C12         5.2850    7.0520   -0.5140 c3        1 MOL      0.053393
     27 N3          5.2580    7.6770    0.7850 n4        1 MOL     -0.296389
     28 H8          0.7090    2.9630    0.5610 hn        1 MOL      0.203018
     29 H9          0.9190    5.7950    1.1770 h1        1 MOL      0.089737
     30 H10         2.1880    4.5080   -1.2080 hc        1 MOL      0.121191
     31 H11         2.7790    3.9750    0.3830 hc        1 MOL      0.121191
     32 H12         3.2280    6.2720    1.0930 hc        1 MOL      0.020429
     33 H13         2.4990    6.9690   -0.2470 hc        1 MOL      0.020429
     34 H14         4.3490    5.5430   -1.6390 hc        1 MOL      0.041124
     35 H15         5.0610    5.0110   -0.1330 hc        1 MOL      0.041124
     36 H16         4.8240    7.7630   -1.2020 hx        1 MOL      0.047514
     37 H17         6.3080    6.8520   -0.8340 hx        1 MOL      0.047514
     38 H18         4.3740    8.1520    0.8420 hn        1 MOL      0.312169
     39 H19         5.4800    7.0570    1.5440 hn        1 MOL      0.312169
     40 H20         5.9280    8.4310    0.8430 hn        1 MOL      0.312169
     41 N4         -1.1760    4.9020   -0.9730 n         1 MOL     -0.271595
     42 C13        -2.2870    5.3210   -1.7720 c3        1 MOL      0.177990
     43 C14        -3.6570    5.1110   -1.1160 c         1 MOL      0.414281
     44 O6         -4.5290    5.9360   -1.3040 o         1 MOL     -0.542596
     45 C15        -2.3160    4.7000   -3.1640 c3        1 MOL     -0.124204
     46 C16        -2.4550    3.2030   -3.2390 c         1 MOL      0.604118
     47 O7         -3.0500    2.6980   -4.2610 o         1 MOL     -0.679346
     48 O8         -2.1470    2.5630   -2.2360 o         1 MOL     -0.679346
     49 H21        -1.1370    3.9210   -0.7230 hn        1 MOL      0.086768
     50 H22        -2.2550    6.3960   -1.9550 h1        1 MOL      0.035394
     51 H23        -1.3320    4.9740   -3.5560 hc        1 MOL      0.031370
     52 H24        -3.0720    5.1170   -3.8260 hc        1 MOL      0.031370
     53 N5         -3.8300    4.0370   -0.3070 n         1 MOL     -0.060777
     54 C17        -4.9720    3.8560    0.5860 c3        1 MOL     -0.157784
     55 C18        -6.0070    2.8240    0.0930 c         1 MOL      0.512503
     56 O9         -7.1830    2.8450    0.5090 o         1 MOL     -0.561702
     57 H25        -2.9570    3.5260   -0.1580 hn        1 MOL      0.088240
     58 H26        -5.4660    4.8010    0.7960 h1        1 MOL      0.096409
     59 H27        -4.5750    3.4740    1.5220 h1        1 MOL      0.096409
     60 N6         -5.5870    1.8790   -0.7330 n         1 MOL     -0.254014
     61 C19        -6.3340    0.7160   -1.2140 c3        1 MOL     -0.069098
     62 C20        -6.6730   -0.4280   -0.2240 c         1 MOL      0.253744
     63 O10        -7.3850   -1.3520   -0.5920 o         1 MOL     -0.422090
     64 C21        -5.6310    0.2070   -2.4210 c3        1 MOL     -0.317650
     65 C22        -4.3420   -0.5380   -2.1770 c         1 MOL      0.545812
     66 N7         -4.1930   -1.7180   -2.8110 n         1 MOL     -0.780628
     67 O11        -3.5380   -0.0890   -1.4450 o         1 MOL     -0.378143
     68 H28        -4.6310    1.8310   -1.0450 hn        1 MOL      0.199849
     69 H29        -7.2700    1.1970   -1.5200 h1        1 MOL      0.141559
     70 H30        -5.4880    1.0270   -3.1260 hc        1 MOL      0.130510
     71 H31        -6.3260   -0.4970   -2.8790 hc        1 MOL      0.130510
     72 H32        -4.8310   -2.1920   -3.4330 hn        1 MOL      0.374593
     73 H33        -3.2630   -2.1110   -2.7680 hn        1 MOL      0.374593
     74 N8         -6.0330   -0.3930    0.9670 n         1 MOL     -0.033240
     75 C23        -6.2210   -1.3690    2.0540 c3        1 MOL     -0.484127
     76 C24        -5.1170   -2.4010    2.0790 c         1 MOL      0.597031
     77 O12        -5.2600   -3.4000    2.8180 o         1 MOL     -0.552206
     78 H34        -5.4040    0.3950    1.0170 hn        1 MOL      0.223928
     79 H35        -7.1420   -1.8980    1.7990 h1        1 MOL      0.205418
     80 H36        -6.3280   -0.8660    3.0160 h1        1 MOL      0.205418
     81 N9         -4.1080   -2.3090    1.2120 n         1 MOL     -0.423399
     82 C25        -3.0160   -3.2540    1.1050 c3        1 MOL      0.033050
     83 C26        -1.6620   -2.5540    0.9620 c         1 MOL      0.707275
     84 O13        -1.6330   -1.4450    0.4170 o         1 MOL     -0.743198
     85 C27        -3.3860   -4.1510   -0.0340 c3        1 MOL      0.009787
     86 C28        -4.7290   -4.8020    0.0440 ca        1 MOL     -0.027640
     87 C29        -5.8600   -4.2040   -0.5320 ca        1 MOL     -0.150015
     88 C30        -4.7290   -6.0520    0.6570 ca        1 MOL     -0.150015
     89 C31        -7.1550   -4.8150   -0.3950 ca        1 MOL     -0.245608
     90 C32        -6.0100   -6.7130    0.7680 ca        1 MOL     -0.245608
     91 C33        -7.2030   -6.0480    0.2180 ca        1 MOL      0.352807
     92 O14        -8.4790   -6.5750    0.4070 oh        1 MOL     -0.509021
     93 H37        -4.0610   -1.4570    0.6670 hn        1 MOL      0.414121
     94 H38        -2.9240   -3.8310    2.0220 h1        1 MOL      0.054483
     95 H39        -2.5950   -4.8690   -0.2650 hc        1 MOL      0.001417
     96 H40        -3.3660   -3.5500   -0.9350 hc        1 MOL      0.001417
     97 H41        -5.7170   -3.2380   -0.9920 ha        1 MOL      0.131526
     98 H42        -3.8240   -6.4910    1.0650 ha        1 MOL      0.131526
     99 H43        -8.0720   -4.3270   -0.6930 ha        1 MOL      0.139182
    100 H44        -6.0930   -7.6380    1.3220 ha        1 MOL      0.139182
    101 H45        -8.5090   -7.0490    1.2470 ho        1 MOL      0.359997
    102 N10        -0.6500   -3.1220    1.5900 n         1 MOL     -0.629031
    103 C34         0.7660   -2.7440    1.5190 c3        1 MOL     -0.028168
    104 C35         1.5590   -3.8530    0.7010 c         1 MOL      0.579009
    105 O15         1.7770   -4.9860    1.1510 o         1 MOL     -0.539396
    106 C36         1.3680   -2.4060    2.8830 c3        1 MOL      0.109433
    107 C37         0.5520   -1.2640    3.5960 c3        1 MOL      0.104334
    108 C38         2.8830   -2.0570    2.7180 c3        1 MOL     -0.077594
    109 C39         1.1110   -0.9410    4.9690 c3        1 MOL     -0.432504
    110 H46        -0.8530   -3.9670    2.0970 hn        1 MOL      0.339860
    111 H47         0.8060   -1.7970    0.9770 h1        1 MOL      0.095747
    112 H48         1.4090   -3.3090    3.4900 hc        1 MOL     -0.005953
    113 H49        -0.4860   -1.5940    3.5840 hc        1 MOL      0.041006
    114 H50         0.6390   -0.3560    3.0010 hc        1 MOL      0.041006
    115 H51         3.2410   -2.1140    3.7440 hc        1 MOL      0.001491
    116 H52         3.3560   -2.7690    2.0340 hc        1 MOL      0.001491
    117 H53         3.0190   -1.0420    2.3430 hc        1 MOL      0.001491
    118 H54         2.0390   -0.3920    4.8100 hc        1 MOL      0.105793
    119 H55         0.3650   -0.3670    5.5240 hc        1 MOL      0.105793
    120 H56         1.3600   -1.8310    5.5400 hc        1 MOL      0.105793
    121 N11         1.9150   -3.4790   -0.5140 n         1 MOL     -0.422382
    122 C40         2.9110   -4.1940   -1.3040 c3        1 MOL     -0.060546
    123 C41         4.2950   -4.1760   -0.7310 c         1 MOL      0.331167
    124 O16         4.5650   -3.1760   -0.0350 o         1 MOL     -0.170120
    125 C42         2.8570   -3.4650   -2.6480 c3        1 MOL     -0.105293
    126 O17         3.3660   -2.1260   -2.7190 oh        1 MOL     -0.439200
    127 H57         1.7270   -2.5190   -0.7790 hn        1 MOL      0.316368
    128 H58         2.5750   -5.2290   -1.3980 h1        1 MOL      0.104688
    129 H59         1.8590   -3.5260   -3.0780 h1        1 MOL      0.097177
    130 H60         3.4760   -4.0970   -3.2890 h1        1 MOL      0.097177
    131 H61         2.7050   -1.5200   -2.3720 ho        1 MOL      0.280578
    132 N12         5.2360   -5.1150   -1.0070 n         1 MOL     -0.360347
    133 C43         6.6170   -4.9260   -0.5190 c3        1 MOL     -0.069726
    134 C44         7.3140   -3.5800   -0.8790 c         1 MOL      0.531458
    135 O18         8.0640   -3.0300   -0.1120 o         1 MOL     -0.495845
    136 C45         7.3960   -6.1090   -0.9190 c3        1 MOL     -0.220288
    137 H62         5.0640   -5.8750   -1.6450 hn        1 MOL      0.292259
    138 H63         6.5100   -4.9530    0.5660 h1        1 MOL      0.135672
    139 H64         7.2110   -7.0940   -0.4870 hc        1 MOL      0.079695
    140 H65         7.4230   -6.2020   -2.0060 hc        1 MOL      0.079695
    141 H66         8.4320   -5.8960   -0.6700 hc        1 MOL      0.079695
    142 N13         6.9650   -2.9950   -2.0230 n         1 MOL     -0.383833
    143 C46         7.3980   -1.6890   -2.5150 c3        1 MOL      0.050327
    144 C47         7.0700   -0.5300   -1.5910 c         1 MOL      0.290491
    145 O19         7.8420    0.4670   -1.4070 o         1 MOL     -0.509684
    146 C48         6.7600   -1.4410   -3.9270 c3        1 MOL     -0.253848
    147 H67         6.3610   -3.4660   -2.6930 hn        1 MOL      0.275944
    148 H68         8.4580   -1.8380   -2.7070 h1        1 MOL      0.100751
    149 H69         7.2060   -2.0570   -4.7040 hc        1 MOL      0.077508
    150 H70         5.7090   -1.7400   -3.8460 hc        1 MOL      0.077508
    151 H71         6.8390   -0.4310   -4.3080 hc        1 MOL      0.077508
    152 N14         5.9300   -0.6430   -0.8880 n         1 MOL      0.078900
    153 C49         5.5080    0.3280    0.1360 c3        1 MOL     -0.182635
    154 C50         6.2070   -0.1070    1.4230 c         1 MOL      0.509595
    155 O20         6.8030    0.7150    2.1060 o         1 MOL     -0.544975
    156 C51         3.9910    0.3150    0.2320 c3        1 MOL      0.079539
    157 C52         3.2870    0.8310   -1.0570 c3        1 MOL      0.031252
    158 C53         1.8110    0.4200   -0.8140 c         1 MOL      0.623760
    159 O21         1.1730    1.0940   -0.0350 o         1 MOL     -0.688431
    160 O22         1.2670   -0.6710   -1.1410 o         1 MOL     -0.688431
    161 H72         5.3040   -1.4130   -1.0290 hn        1 MOL      0.036549
    162 H73         5.9450    1.3130   -0.0250 h1        1 MOL      0.081314
    163 H74         3.7060    0.9920    1.0470 hc        1 MOL      0.067151
    164 H75         3.7910   -0.7310    0.4500 hc        1 MOL      0.067151
    165 H76         3.6990    0.3800   -1.9610 hc        1 MOL     -0.050972
    166 H77         3.4760    1.9030   -1.0280 hc        1 MOL     -0.050972
    167 N15         6.2400   -1.4290    1.7530 n         1 MOL     -0.061548
    168 C54         6.8210   -1.8110    3.0380 c3        1 MOL     -0.413215
    169 H78         6.7620   -2.8930    3.1550 h1        1 MOL      0.142287
    170 H79         7.8650   -1.4990    3.0730 h1        1 MOL      0.142287
    171 H80         6.2700   -1.3280    3.8450 h1        1 MOL      0.142287
    172 H81         5.8250   -2.0830    1.1060 hn        1 MOL      0.031885
    173 Ca1        -1.0930    0.4580   -1.4050 Ca        1 MOL      1.791216
    174 O23        -1.2800   -2.1120   -2.6620 oh        1 MOL     -0.843370
    175 H82        -0.8450   -2.0730   -3.5160 ho        1 MOL      0.402600
    176 H83        -1.1740   -3.0130   -2.3790 ho        1 MOL      0.402600
    177 O24        -1.7780    0.3320   -4.1770 oh        1 MOL     -0.843370
    178 H84        -1.6810    0.1530   -5.1090 ho        1 MOL      0.402600
    179 H85        -2.1230    1.2240   -4.1340 ho        1 MOL      0.402600
    180 O25         0.6090    1.3840   -3.2950 oh        1 MOL     -0.843370
    181 H86         1.0390    2.1960   -3.5520 ho        1 MOL      0.402600
    182 H87         0.4270    0.9400   -4.1150 ho        1 MOL      0.402600
@<TRIPOS>BOND
     1    1    2 1   
     2    1    4 1   
     3    1    5 1   
     4    1    6 1   
     5    2    3 2   
     6    2    7 1   
     7    7    8 1   
     8    7   15 1   
     9    8    9 1   
    10    8   11 1   
    11    8   16 1   
    12    9   10 2   
    13    9   19 1   
    14   11   12 1   
    15   11   17 1   
    16   11   18 1   
    17   12   13 1   
    18   12   14 1   
    19   19   20 1   
    20   19   28 1   
    21   20   21 1   
    22   20   23 1   
    23   20   29 1   
    24   21   22 2   
    25   21   41 1   
    26   23   24 1   
    27   23   30 1   
    28   23   31 1   
    29   24   25 1   
    30   24   32 1   
    31   24   33 1   
    32   25   26 1   
    33   25   34 1   
    34   25   35 1   
    35   26   27 1   
    36   26   36 1   
    37   26   37 1   
    38   27   38 1   
    39   27   39 1   
    40   27   40 1   
    41   41   42 1   
    42   41   49 1   
    43   42   43 1   
    44   42   45 1   
    45   42   50 1   
    46   43   44 2   
    47   43   53 1   
    48   45   46 1   
    49   45   51 1   
    50   45   52 1   
    51   46   47 1   
    52   46   48 1   
    53   53   54 1   
    54   53   57 1   
    55   54   55 1   
    56   54   58 1   
    57   54   59 1   
    58   55   56 2   
    59   55   60 1   
    60   60   61 1   
    61   60   68 1   
    62   61   62 1   
    63   61   64 1   
    64   61   69 1   
    65   62   63 2   
    66   62   74 1   
    67   64   65 1   
    68   64   70 1   
    69   64   71 1   
    70   65   66 1   
    71   65   67 2   
    72   66   72 1   
    73   66   73 1   
    74   74   75 1   
    75   74   78 1   
    76   75   76 1   
    77   75   79 1   
    78   75   80 1   
    79   76   77 2   
    80   76   81 1   
    81   81   82 1   
    82   81   93 1   
    83   82   83 1   
    84   82   85 1   
    85   82   94 1   
    86   83   84 2   
    87   83  102 1   
    88   85   86 1   
    89   85   95 1   
    90   85   96 1   
    91   86   87 ar  
    92   86   88 ar  
    93   87   89 ar  
    94   87   97 1   
    95   88   90 ar  
    96   88   98 1   
    97   89   91 ar  
    98   89   99 1   
    99   90   91 ar  
   100   90  100 1   
   101   91   92 1   
   102   92  101 1   
   103  102  103 1   
   104  102  110 1   
   105  103  104 1   
   106  103  106 1   
   107  103  111 1   
   108  104  105 2   
   109  104  121 1   
   110  106  107 1   
   111  106  108 1   
   112  106  112 1   
   113  107  109 1   
   114  107  113 1   
   115  107  114 1   
   116  108  115 1   
   117  108  116 1   
   118  108  117 1   
   119  109  118 1   
   120  109  119 1   
   121  109  120 1   
   122  121  122 1   
   123  121  127 1   
   124  122  123 1   
   125  122  125 1   
   126  122  128 1   
   127  123  124 2   
   128  123  132 1   
   129  125  126 1   
   130  125  129 1   
   131  125  130 1   
   132  126  131 1   
   133  132  133 1   
   134  132  137 1   
   135  133  134 1   
   136  133  136 1   
   137  133  138 1   
   138  134  135 2   
   139  134  142 1   
   140  136  139 1   
   141  136  140 1   
   142  136  141 1   
   143  142  143 1   
   144  142  147 1   
   145  143  144 1   
   146  143  146 1   
   147  143  148 1   
   148  144  145 2   
   149  144  152 1   
   150  146  149 1   
   151  146  150 1   
   152  146  151 1   
   153  152  153 1   
   154  152  161 1   
   155  153  154 1   
   156  153  156 1   
   157  153  162 1   
   158  154  155 2   
   159  154  167 1   
   160  156  157 1   
   161  156  163 1   
   162  156  164 1   
   163  157  158 1   
   164  157  165 1   
   165  157  166 1   
   166  158  159 1   
   167  158  160 1   
   168  167  168 1   
   169  167  172 1   
   170  168  169 1   
   171  168  170 1   
   172  168  171 1   
   173  174  175 1   
   174  174  176 1   
   175  177  178 1   
   176  177  179 1   
   177  180  181 1   
   178  180  182 1   
@<TRIPOS>SUBSTRUCTURE
     1 MOL         1 TEMP              0 ****  ****    0 ROOT
