@<TRIPOS>MOLECULE
MOL
  179   176     1     0     0
SMALL
resp


@<TRIPOS>ATOM
      1 C1         -1.6980   -3.4310    6.8760 c3        1 MOL     -0.387447
      2 C2         -1.7950   -2.8850    5.4290 c         1 MOL      0.689685
      3 O1         -2.8550   -2.7620    4.8760 o         1 MOL     -0.529714
      4 H1         -2.2590   -4.3630    6.9500 hc        1 MOL      0.099171
      5 H2         -0.6530   -3.6150    7.1250 hc        1 MOL      0.099171
      6 H3         -2.1150   -2.7000    7.5690 hc        1 MOL      0.099171
      7 N1         -0.5950   -2.9500    4.7250 n         1 MOL     -0.576188
      8 C3         -0.5260   -2.5990    3.2950 c3        1 MOL      0.007133
      9 C4         -0.8150   -3.7670    2.2760 c         1 MOL      0.878115
     10 O2         -0.5550   -4.8820    2.6290 o         1 MOL     -0.604565
     11 C5          0.7640   -1.8760    3.1310 c3        1 MOL      0.011093
     12 C6          0.8470   -1.3430    1.6830 c         1 MOL      0.427601
     13 O3          1.8410   -1.7100    1.0780 o         1 MOL     -0.637493
     14 O4         -0.1020   -0.6570    1.1490 o         1 MOL     -0.637493
     15 H4          0.2420   -2.9890    5.2880 hn        1 MOL      0.305584
     16 H5         -1.3350   -1.8840    3.1140 h1        1 MOL      0.022515
     17 H6          1.6020   -2.5150    3.4010 hc        1 MOL      0.010515
     18 H7          0.8170   -1.0340    3.8180 hc        1 MOL      0.010515
     19 N2         -1.3340   -3.5430    1.0610 n         1 MOL     -0.644369
     20 C7         -1.7160   -4.5760    0.0610 c3        1 MOL     -0.308684
     21 C8         -0.5920   -5.1790   -0.7730 c         1 MOL      0.601881
     22 O5         -0.8590   -6.1150   -1.4750 o         1 MOL     -0.551024
     23 C9         -2.9300   -3.9800   -0.6850 c3        1 MOL      0.501194
     24 C10        -3.8400   -4.9600   -1.4530 c3        1 MOL     -0.404198
     25 C11        -5.0940   -4.3060   -2.0070 c3        1 MOL      0.136469
     26 C12        -5.8920   -5.3940   -2.7200 c3        1 MOL     -0.007358
     27 N3         -7.1450   -4.8810   -3.2450 n4        1 MOL     -0.275235
     28 H8         -1.3860   -2.6030    0.6990 hn        1 MOL      0.309964
     29 H9         -2.1910   -5.3880    0.6130 h1        1 MOL      0.163549
     30 H10        -2.6080   -3.1710   -1.3380 hc        1 MOL     -0.030872
     31 H11        -3.6230   -3.6110    0.0680 hc        1 MOL     -0.030872
     32 H12        -4.1230   -5.7530   -0.7590 hc        1 MOL      0.088697
     33 H13        -3.2360   -5.3080   -2.2870 hc        1 MOL      0.088697
     34 H14        -4.8080   -3.4790   -2.6630 hc        1 MOL      0.013916
     35 H15        -5.7030   -3.8130   -1.2450 hc        1 MOL      0.013916
     36 H16        -6.1420   -6.2090   -2.0440 hx        1 MOL      0.090964
     37 H17        -5.2680   -5.7780   -3.5240 hx        1 MOL      0.090964
     38 H18        -7.0840   -4.0220   -3.7670 hn        1 MOL      0.304711
     39 H19        -7.7500   -5.5050   -3.7590 hn        1 MOL      0.304711
     40 H20        -7.6450   -4.6670   -2.3910 hn        1 MOL      0.304711
     41 N4          0.6890   -4.6840   -0.6440 n         1 MOL     -0.317427
     42 C13         1.8020   -5.3660   -1.2010 c3        1 MOL     -0.056728
     43 C14         3.2260   -5.1750   -0.4490 c         1 MOL      0.443326
     44 O6          4.2620   -5.5210   -0.9910 o         1 MOL     -0.496937
     45 C15         1.9710   -4.8350   -2.6520 c3        1 MOL     -0.077347
     46 C16         1.9940   -3.3270   -2.7810 c         1 MOL      0.757023
     47 O7          1.8730   -2.7980   -3.9440 o         1 MOL     -0.732047
     48 O8          2.1780   -2.6370   -1.7470 o         1 MOL     -0.732047
     49 H21         0.8040   -3.8430   -0.1150 hn        1 MOL      0.240596
     50 H22         1.5970   -6.4350   -1.3040 h1        1 MOL      0.118014
     51 H23         1.1510   -5.1880   -3.2590 hc        1 MOL      0.032325
     52 H24         2.9060   -5.2500   -3.0320 hc        1 MOL      0.032325
     53 N5          3.2680   -4.5870    0.7150 n         1 MOL     -0.323669
     54 C17         4.5410   -4.3970    1.4540 c3        1 MOL     -0.013265
     55 C18         5.5620   -3.4790    0.7450 c         1 MOL      0.443537
     56 O9          6.7380   -3.6230    0.9930 o         1 MOL     -0.565508
     57 H25         2.4120   -4.2850    1.1520 hn        1 MOL      0.224579
     58 H26         5.0490   -5.3200    1.7360 h1        1 MOL      0.078323
     59 H27         4.4320   -3.9250    2.4410 h1        1 MOL      0.078323
     60 N6          5.1710   -2.6440   -0.2180 n         1 MOL     -0.009931
     61 C19         6.0960   -2.0210   -1.0590 c3        1 MOL     -0.023971
     62 C20         6.7650   -0.7550   -0.5130 c         1 MOL      0.201023
     63 O10         7.6340   -0.1150   -1.1400 o         1 MOL     -0.450836
     64 C21         5.3200   -1.7610   -2.4340 c3        1 MOL     -0.232718
     65 C22         4.5860   -0.4170   -2.4150 c         1 MOL      0.753510
     66 N7          4.5800    0.3540   -3.4960 n         1 MOL     -0.732216
     67 O11         3.9720   -0.0930   -1.3830 o         1 MOL     -0.616500
     68 H28         4.1900   -2.4970   -0.4260 hn        1 MOL      0.010282
     69 H29         6.9090   -2.6970   -1.3010 h1        1 MOL      0.144407
     70 H30         4.7100   -2.5830   -2.8170 hc        1 MOL      0.084242
     71 H31         6.0590   -1.5900   -3.2220 hc        1 MOL      0.084242
     72 H32         5.0680    0.1360   -4.3570 hn        1 MOL      0.357339
     73 H33         3.9620    1.1490   -3.4470 hn        1 MOL      0.357339
     74 N8          6.4700   -0.3720    0.7570 n         1 MOL     -0.000572
     75 C23         7.0780    0.6990    1.5360 c3        1 MOL     -0.274617
     76 C24         6.1540    1.8310    1.8080 c         1 MOL      0.596994
     77 O12         6.5440    2.7550    2.4880 o         1 MOL     -0.553990
     78 H34         5.9200   -1.0570    1.2530 hn        1 MOL      0.187878
     79 H35         8.0560    1.0060    1.1670 h1        1 MOL      0.130932
     80 H36         7.2000    0.1320    2.4630 h1        1 MOL      0.130932
     81 N9          4.9060    1.8020    1.2080 n         1 MOL     -0.250696
     82 C25         3.9070    2.8800    1.2480 c3        1 MOL      0.256909
     83 C26         2.4780    2.2120    1.2710 c         1 MOL      0.190035
     84 O13         2.2900    1.0870    0.7890 o         1 MOL     -0.287102
     85 C27         4.0080    3.8060    0.0380 c3        1 MOL      0.030098
     86 C28         5.4180    4.3910   -0.3430 ca        1 MOL      0.041833
     87 C29         6.4220    3.5980   -1.0060 ca        1 MOL     -0.226956
     88 C30         5.6170    5.7930   -0.1250 ca        1 MOL     -0.226956
     89 C31         7.6280    4.2130   -1.3080 ca        1 MOL     -0.134603
     90 C32         6.8250    6.3960   -0.4840 ca        1 MOL     -0.134603
     91 C33         7.8030    5.6300   -1.0980 ca        1 MOL      0.224541
     92 O14         8.9950    6.1770   -1.4280 oh        1 MOL     -0.473163
     93 H37         4.6350    0.8800    0.9170 hn        1 MOL      0.026653
     94 H38         4.0240    3.3870    2.2010 h1        1 MOL     -0.016768
     95 H39         3.2300    4.5600    0.0380 hc        1 MOL      0.006064
     96 H40         3.8060    3.2010   -0.8410 hc        1 MOL      0.006064
     97 H41         6.3320    2.5260   -0.9820 ha        1 MOL      0.125622
     98 H42         4.8670    6.4310    0.3260 ha        1 MOL      0.125622
     99 H43         8.3900    3.6400   -1.8190 ha        1 MOL      0.120498
    100 H44         7.1250    7.4080   -0.2340 ha        1 MOL      0.120498
    101 H45         9.1130    7.1240   -1.3430 ho        1 MOL      0.362366
    102 N10         1.5150    2.9710    1.8010 n         1 MOL     -0.355154
    103 C34         0.0740    2.7350    1.6530 c3        1 MOL     -0.003701
    104 C35        -0.6990    3.8810    0.9720 c         1 MOL      0.478161
    105 O15        -0.5100    5.1240    1.1880 o         1 MOL     -0.578277
    106 C36        -0.5300    2.2800    3.0040 c3        1 MOL      0.001137
    107 C37        -1.8460    1.5860    2.7880 c3        1 MOL      0.250034
    108 C38        -0.4950    3.3670    4.1050 c3        1 MOL     -0.384329
    109 C39        -2.5620    0.9940    4.0080 c3        1 MOL     -0.267409
    110 H46         1.8270    3.9260    1.9700 hn        1 MOL      0.279326
    111 H47        -0.0440    1.8970    0.9600 h1        1 MOL      0.158568
    112 H48         0.1150    1.5420    3.4810 hc        1 MOL      0.091708
    113 H49        -1.7010    0.8190    2.0200 hc        1 MOL     -0.068578
    114 H50        -2.5440    2.3400    2.4130 hc        1 MOL     -0.068578
    115 H51        -0.6410    2.8450    5.0530 hc        1 MOL      0.094281
    116 H52         0.4760    3.8610    4.1010 hc        1 MOL      0.094281
    117 H53        -1.2110    4.1600    3.9100 hc        1 MOL      0.094281
    118 H54        -3.0040    1.7960    4.6010 hc        1 MOL      0.055789
    119 H55        -3.3990    0.3470    3.7300 hc        1 MOL      0.055789
    120 H56        -1.8180    0.4650    4.6020 hc        1 MOL      0.055789
    121 N11        -1.7290    3.5710    0.2520 n         1 MOL     -0.110334
    122 C40        -2.6420    4.3990   -0.5030 c3        1 MOL     -0.104630
    123 C41        -4.1040    4.1800   -0.0890 c         1 MOL      0.474220
    124 O16        -4.4230    3.1110    0.4720 o         1 MOL     -0.416672
    125 C42        -2.3140    4.2290   -2.0240 c3        1 MOL      0.056073
    126 O17        -2.4260    2.8410   -2.4090 oh        1 MOL     -0.548790
    127 H57        -1.9150    2.5850    0.1450 hn        1 MOL      0.175899
    128 H58        -2.4160    5.4320   -0.2510 h1        1 MOL      0.069436
    129 H59        -1.2960    4.5760   -2.1400 h1        1 MOL      0.059317
    130 H60        -2.9600    4.8360   -2.6560 h1        1 MOL      0.059317
    131 H61        -1.7090    2.3250   -2.0330 ho        1 MOL      0.333605
    132 N12        -4.9570    5.1460   -0.3280 n         1 MOL     -0.416511
    133 C43        -6.4080    4.9850    0.0460 c3        1 MOL      0.098127
    134 C44        -7.1540    3.7340   -0.5190 c         1 MOL      0.406523
    135 O18        -7.9410    3.0780    0.2250 o         1 MOL     -0.470548
    136 C45        -7.2420    6.2000   -0.2880 c3        1 MOL     -0.333643
    137 H62        -4.6580    5.9470   -0.8740 hn        1 MOL      0.299026
    138 H63        -6.4430    4.8940    1.1340 h1        1 MOL      0.109418
    139 H64        -7.0570    6.4670   -1.3200 hc        1 MOL      0.105760
    140 H65        -8.3040    6.2260   -0.0560 hc        1 MOL      0.105760
    141 H66        -6.8560    6.9960    0.3490 hc        1 MOL      0.105760
    142 N13        -6.8200    3.4130   -1.7730 n         1 MOL     -0.421333
    143 C46        -7.3250    2.1540   -2.4860 c3        1 MOL      0.153694
    144 C47        -6.9620    0.8720   -1.6670 c         1 MOL      0.431662
    145 O19        -7.8450    0.0510   -1.5050 o         1 MOL     -0.540934
    146 C48        -6.7120    2.0600   -3.9160 c3        1 MOL     -0.251136
    147 H67        -6.2430    4.0270   -2.3260 hn        1 MOL      0.302105
    148 H68        -8.4040    2.1840   -2.6190 h1        1 MOL      0.067664
    149 H69        -7.3550    1.4150   -4.5180 hc        1 MOL      0.070688
    150 H70        -6.5940    3.0390   -4.3650 hc        1 MOL      0.070688
    151 H71        -5.7650    1.5240   -3.7950 hc        1 MOL      0.070688
    152 N14        -5.7670    0.8400   -1.0450 n         1 MOL     -0.250488
    153 C49        -5.2890   -0.3840   -0.2530 c3        1 MOL     -0.085853
    154 C50        -5.7870   -0.2820    1.1300 c         1 MOL      0.510623
    155 O20        -5.9470   -1.2310    1.8990 o         1 MOL     -0.557510
    156 C51        -3.7800   -0.4900   -0.2380 c3        1 MOL      0.024754
    157 C52        -3.0810   -0.4030   -1.6500 c3        1 MOL      0.049940
    158 C53        -1.5670   -0.3110   -1.5250 c         1 MOL      0.602906
    159 O21        -0.9660    0.7640   -1.2810 o         1 MOL     -0.695992
    160 O22        -0.9070   -1.3500   -1.7450 o         1 MOL     -0.695992
    161 H72        -5.1940    1.6750   -1.0730 hn        1 MOL      0.216761
    162 H73        -5.6850   -1.2580   -0.7680 h1        1 MOL      0.026506
    163 H74        -3.4750   -1.4660    0.1540 hc        1 MOL      0.021804
    164 H75        -3.3820    0.2950    0.4150 hc        1 MOL      0.021804
    165 H76        -3.3980    0.4490   -2.2570 hc        1 MOL     -0.033339
    166 H77        -3.4270   -1.2660   -2.2180 hc        1 MOL     -0.033339
    167 N15        -6.1020    0.9350    1.5660 n         1 MOL     -0.094940
    168 C54        -6.5530    1.2160    2.9170 c3        1 MOL     -0.165804
    169 H78        -6.9500    0.3050    3.3640 h1        1 MOL      0.082220
    170 H79        -5.7140    1.5770    3.5130 h1        1 MOL      0.082220
    171 H80        -7.3330    1.9770    2.8890 h1        1 MOL      0.082220
    172 H81        -5.8670    1.7260    0.9910 hn        1 MOL      0.088323
    173 Ca1         1.3290   -0.3250   -1.1220 Ca        1 MOL      1.755888
    174 O23         1.4120    2.3850   -1.8220 oh        1 MOL     -0.949896
    175 H82         0.9090    2.1590   -2.6070 ho        1 MOL      0.435210
    176 H83         1.7220    3.2780   -1.9820 ho        1 MOL      0.435210
    177 O24         1.6810   -0.1770   -3.8070 oh        1 MOL     -0.949896
    178 H84         1.8700   -1.0740   -4.0680 ho        1 MOL      0.435210
    179 H85         1.2680    0.2120   -4.5760 ho        1 MOL      0.435210
@<TRIPOS>BOND
     1    1    2 1   
     2    1    4 1   
     3    1    5 1   
     4    1    6 1   
     5    2    3 2   
     6    2    7 1   
     7    7    8 1   
     8    7   15 1   
     9    8    9 1   
    10    8   11 1   
    11    8   16 1   
    12    9   10 2   
    13    9   19 1   
    14   11   12 1   
    15   11   17 1   
    16   11   18 1   
    17   12   13 1   
    18   12   14 1   
    19   19   20 1   
    20   19   28 1   
    21   20   21 1   
    22   20   23 1   
    23   20   29 1   
    24   21   22 2   
    25   21   41 1   
    26   23   24 1   
    27   23   30 1   
    28   23   31 1   
    29   24   25 1   
    30   24   32 1   
    31   24   33 1   
    32   25   26 1   
    33   25   34 1   
    34   25   35 1   
    35   26   27 1   
    36   26   36 1   
    37   26   37 1   
    38   27   38 1   
    39   27   39 1   
    40   27   40 1   
    41   41   42 1   
    42   41   49 1   
    43   42   43 1   
    44   42   45 1   
    45   42   50 1   
    46   43   44 2   
    47   43   53 1   
    48   45   46 1   
    49   45   51 1   
    50   45   52 1   
    51   46   47 1   
    52   46   48 1   
    53   53   54 1   
    54   53   57 1   
    55   54   55 1   
    56   54   58 1   
    57   54   59 1   
    58   55   56 2   
    59   55   60 1   
    60   60   61 1   
    61   60   68 1   
    62   61   62 1   
    63   61   64 1   
    64   61   69 1   
    65   62   63 2   
    66   62   74 1   
    67   64   65 1   
    68   64   70 1   
    69   64   71 1   
    70   65   66 1   
    71   65   67 2   
    72   66   72 1   
    73   66   73 1   
    74   74   75 1   
    75   74   78 1   
    76   75   76 1   
    77   75   79 1   
    78   75   80 1   
    79   76   77 2   
    80   76   81 1   
    81   81   82 1   
    82   81   93 1   
    83   82   83 1   
    84   82   85 1   
    85   82   94 1   
    86   83   84 2   
    87   83  102 1   
    88   85   86 1   
    89   85   95 1   
    90   85   96 1   
    91   86   87 ar  
    92   86   88 ar  
    93   87   89 ar  
    94   87   97 1   
    95   88   90 ar  
    96   88   98 1   
    97   89   91 ar  
    98   89   99 1   
    99   90   91 ar  
   100   90  100 1   
   101   91   92 1   
   102   92  101 1   
   103  102  103 1   
   104  102  110 1   
   105  103  104 1   
   106  103  106 1   
   107  103  111 1   
   108  104  105 2   
   109  104  121 1   
   110  106  107 1   
   111  106  108 1   
   112  106  112 1   
   113  107  109 1   
   114  107  113 1   
   115  107  114 1   
   116  108  115 1   
   117  108  116 1   
   118  108  117 1   
   119  109  118 1   
   120  109  119 1   
   121  109  120 1   
   122  121  122 1   
   123  121  127 1   
   124  122  123 1   
   125  122  125 1   
   126  122  128 1   
   127  123  124 2   
   128  123  132 1   
   129  125  126 1   
   130  125  129 1   
   131  125  130 1   
   132  126  131 1   
   133  132  133 1   
   134  132  137 1   
   135  133  134 1   
   136  133  136 1   
   137  133  138 1   
   138  134  135 2   
   139  134  142 1   
   140  136  139 1   
   141  136  140 1   
   142  136  141 1   
   143  142  143 1   
   144  142  147 1   
   145  143  144 1   
   146  143  146 1   
   147  143  148 1   
   148  144  145 2   
   149  144  152 1   
   150  146  149 1   
   151  146  150 1   
   152  146  151 1   
   153  152  153 1   
   154  152  161 1   
   155  153  154 1   
   156  153  156 1   
   157  153  162 1   
   158  154  155 2   
   159  154  167 1   
   160  156  157 1   
   161  156  163 1   
   162  156  164 1   
   163  157  158 1   
   164  157  165 1   
   165  157  166 1   
   166  158  159 1   
   167  158  160 1   
   168  167  168 1   
   169  167  172 1   
   170  168  169 1   
   171  168  170 1   
   172  168  171 1   
   173  174  175 1   
   174  174  176 1   
   175  177  178 1   
   176  177  179 1   
@<TRIPOS>SUBSTRUCTURE
     1 MOL         1 TEMP              0 ****  ****    0 ROOT
