@<TRIPOS>MOLECULE
MOL
  189   185     1     0     0
SMALL
resp


@<TRIPOS>ATOM
      1 C1          0.8650    3.7020   -4.5950 c3        1 MOL     -0.410440
      2 C2          1.1640    3.1040   -3.2760 c         1 MOL      0.665238
      3 O1          0.5910    3.3810   -2.2440 o         1 MOL     -0.595974
      4 H1         -0.1850    3.9920   -4.6320 hc        1 MOL      0.103682
      5 H2          1.4910    4.5820   -4.7460 hc        1 MOL      0.103682
      6 H3          1.0680    2.9730   -5.3800 hc        1 MOL      0.103682
      7 N1          2.2850    2.3740   -3.1970 n         1 MOL     -0.547927
      8 C3          2.8980    1.7380   -1.9880 c3        1 MOL      0.208276
      9 C4          3.7680    2.7980   -1.2990 c         1 MOL      0.488608
     10 O2          4.9970    2.8340   -1.4240 o         1 MOL     -0.479044
     11 C5          3.6220    0.4590   -2.5120 c3        1 MOL     -0.349475
     12 C6          4.2030   -0.2630   -1.2630 c         1 MOL      0.562668
     13 O3          5.1730   -1.0140   -1.4640 o         1 MOL     -0.553766
     14 O4          3.6740   -0.1660   -0.1370 o         1 MOL     -0.553766
     15 H4          2.7150    2.1090   -4.0660 hn        1 MOL      0.299694
     16 H5          2.2040    1.3550   -1.2380 h1        1 MOL      0.070514
     17 H6          4.3180    0.8020   -3.2790 hc        1 MOL      0.103505
     18 H7          2.8730   -0.2150   -2.9110 hc        1 MOL      0.103505
     19 N2          3.1860    3.8140   -0.6190 n         1 MOL     -0.457674
     20 C7          3.8110    5.0070   -0.0800 c3        1 MOL     -0.047290
     21 C8          4.6040    4.6370    1.1930 c         1 MOL      0.523922
     22 O5          5.7640    4.9840    1.2710 o         1 MOL     -0.535645
     23 C9          2.7910    6.1460    0.3060 c3        1 MOL     -0.032473
     24 C10         2.1860    6.8860   -0.8900 c3        1 MOL      0.047546
     25 C11         1.2520    8.0480   -0.5640 c3        1 MOL     -0.020534
     26 C12         0.8380    8.7210   -1.8440 c3        1 MOL     -0.052062
     27 N3         -0.1410    7.8510   -2.5850 n4        1 MOL     -0.486936
     28 H8          2.1740    3.8010   -0.7180 hn        1 MOL      0.351619
     29 H9          4.5090    5.4620   -0.7890 h1        1 MOL      0.094562
     30 H10         3.2470    6.8350    1.0050 hc        1 MOL      0.021030
     31 H11         1.9460    5.7480    0.8670 hc        1 MOL      0.021030
     32 H12         1.6630    6.0540   -1.3630 hc        1 MOL      0.003076
     33 H13         2.9820    7.3980   -1.4420 hc        1 MOL      0.003076
     34 H14         1.7660    8.8490   -0.0380 hc        1 MOL      0.056321
     35 H15         0.3760    7.6880   -0.0330 hc        1 MOL      0.056321
     36 H16         1.7500    8.8400   -2.4260 hx        1 MOL      0.111365
     37 H17         0.3680    9.6530   -1.5090 hx        1 MOL      0.111365
     38 H18        -0.6350    7.2760   -1.9220 hn        1 MOL      0.367410
     39 H19        -0.7610    8.4510   -3.1040 hn        1 MOL      0.367410
     40 H20         0.3500    7.2300   -3.2190 hn        1 MOL      0.367410
     41 N4          4.1140    3.8550    2.1270 n         1 MOL     -0.425530
     42 C13         4.8620    3.2350    3.2580 c3        1 MOL      0.108014
     43 C14         5.8820    2.2110    2.8050 c         1 MOL      0.479479
     44 O6          6.9530    2.1790    3.4020 o         1 MOL     -0.546037
     45 C15         3.9650    2.5800    4.3070 c3        1 MOL     -0.471036
     46 C16         2.8650    1.6850    3.8610 c         1 MOL      0.831124
     47 O7          2.8820    1.2180    2.6750 o         1 MOL     -0.707981
     48 O8          1.8030    1.5310    4.5480 o         1 MOL     -0.707981
     49 H21         3.1330    3.6040    2.1320 hn        1 MOL      0.304301
     50 H22         5.3960    4.0850    3.6750 h1        1 MOL      0.084442
     51 H23         3.6360    3.4300    4.9090 hc        1 MOL      0.127058
     52 H24         4.6280    2.0700    5.0070 hc        1 MOL      0.127058
     53 N5          5.6380    1.5910    1.6480 n         1 MOL     -0.080671
     54 C17         6.6720    0.8370    0.8730 c3        1 MOL     -0.069554
     55 C18         7.0350   -0.4970    1.4910 c         1 MOL      0.512651
     56 O9          8.1620   -0.6380    2.0690 o         1 MOL     -0.564048
     57 H25         4.7040    1.6600    1.2580 hn        1 MOL      0.064421
     58 H26         7.5960    1.4210    0.8130 h1        1 MOL      0.084694
     59 H27         6.3820    0.7400   -0.1730 h1        1 MOL      0.084694
     60 N6          6.2360   -1.4760    1.2340 n         1 MOL     -0.186850
     61 C19         6.4570   -2.8380    1.6880 c3        1 MOL      0.061267
     62 C20         6.6600   -3.8800    0.5460 c         1 MOL      0.393761
     63 O10         7.1880   -4.9510    0.7210 o         1 MOL     -0.537849
     64 C21         5.3250   -3.2240    2.6490 c3        1 MOL     -0.169365
     65 C22         3.9240   -2.6890    2.2860 c         1 MOL      0.847018
     66 O11         3.2170   -2.0820    3.0880 o         1 MOL     -0.770726
     67 O12         3.3600   -2.9530    1.2000 o         1 MOL     -0.770726
     68 H28         5.4770   -1.2620    0.5990 hn        1 MOL     -0.047253
     69 H29         7.3530   -2.9460    2.3030 h1        1 MOL      0.098168
     70 H30         5.4350   -2.7220    3.6200 hc        1 MOL      0.047754
     71 H31         5.2290   -4.2890    2.8070 hc        1 MOL      0.047754
     72 N7          6.2840   -3.4590   -0.6570 n         1 MOL     -0.153720
     73 C23         6.1850   -4.2770   -1.8150 c3        1 MOL     -0.075375
     74 C24         4.7470   -4.5900   -2.1850 c         1 MOL      0.510724
     75 O13         4.5620   -5.4530   -3.0800 o         1 MOL     -0.599441
     76 H32         5.9120   -2.5290   -0.5630 hn        1 MOL      0.144733
     77 H33         6.5750   -5.2840   -1.6910 h1        1 MOL      0.081660
     78 H34         6.6980   -3.8470   -2.6770 h1        1 MOL      0.081660
     79 N8          3.7670   -4.0140   -1.5670 n         1 MOL     -0.148481
     80 C25         2.3930   -4.3880   -1.7360 c3        1 MOL     -0.462328
     81 C26         1.3980   -3.1730   -1.5770 c         1 MOL      0.950762
     82 O14         1.4650   -2.3250   -0.7020 o         1 MOL     -0.712892
     83 C27         1.9470   -5.4970   -0.7450 c3        1 MOL      0.491544
     84 C28         2.7890   -6.7740   -0.9190 c3        1 MOL     -0.491941
     85 O15         2.2430   -5.1450    0.6700 oh        1 MOL     -0.675050
     86 H35         3.9400   -3.3500   -0.8350 hn        1 MOL      0.198064
     87 H36         2.2680   -4.8280   -2.7260 h1        1 MOL      0.144496
     88 H37         0.8800   -5.6300   -0.8950 h1        1 MOL     -0.005883
     89 H38         2.6550   -4.2840    0.6870 ho        1 MOL      0.454910
     90 H39         2.1840   -7.5590   -0.4680 hc        1 MOL      0.131495
     91 H40         2.8360   -7.0980   -1.9650 hc        1 MOL      0.131495
     92 H41         3.7940   -6.6510   -0.5110 hc        1 MOL      0.131495
     93 N9          0.3700   -3.1790   -2.4740 n         1 MOL     -0.685371
     94 C29        -0.6970   -2.2660   -2.4870 c3        1 MOL     -0.133968
     95 C30        -1.8940   -2.9560   -1.8540 c         1 MOL      0.616913
     96 O16        -2.3300   -3.9590   -2.3700 o         1 MOL     -0.564328
     97 C31        -1.0770   -1.8070   -3.8360 c3        1 MOL      0.456575
     98 C32         0.1700   -1.3680   -4.7210 c3        1 MOL      0.080362
     99 C33        -2.1920   -0.7260   -3.7370 c3        1 MOL     -0.322246
    100 C34        -0.2640   -1.0340   -6.1560 c3        1 MOL     -0.283499
    101 H42         0.5030   -3.7730   -3.2770 hn        1 MOL      0.315628
    102 H43        -0.4610   -1.3720   -1.9110 h1        1 MOL      0.112469
    103 H44        -1.5430   -2.6500   -4.3580 hc        1 MOL     -0.071841
    104 H45         0.9230   -2.1510   -4.7170 hc        1 MOL     -0.016178
    105 H46         0.6100   -0.4910   -4.2360 hc        1 MOL     -0.016178
    106 H47        -2.3780   -0.2960   -4.7200 hc        1 MOL      0.046437
    107 H48        -3.1650   -1.1480   -3.4530 hc        1 MOL      0.046437
    108 H49        -1.6900    0.0750   -3.1930 hc        1 MOL      0.046437
    109 H50        -0.8120   -0.0970   -6.1070 hc        1 MOL      0.064479
    110 H51         0.5880   -0.7400   -6.7730 hc        1 MOL      0.064479
    111 H52        -0.9050   -1.8270   -6.5450 hc        1 MOL      0.064479
    112 N10        -2.5400   -2.3650   -0.7980 n         1 MOL     -0.330750
    113 C35        -3.8280   -2.7510   -0.1470 c3        1 MOL     -0.168909
    114 C36        -4.9810   -1.9900   -0.8180 c         1 MOL      0.387064
    115 O17        -4.7970   -0.9300   -1.3840 o         1 MOL     -0.322704
    116 C37        -3.7340   -2.5250    1.3890 c3        1 MOL      0.395640
    117 C38        -2.8700   -3.4750    2.1720 c3        1 MOL     -0.497385
    118 O18        -3.2880   -1.1660    1.6540 oh        1 MOL     -0.630882
    119 H53        -2.1040   -1.4700   -0.6360 hn        1 MOL      0.314845
    120 H54        -3.9560   -3.7790   -0.4900 h1        1 MOL      0.102583
    121 H55        -4.7690   -2.6050    1.7160 h1        1 MOL     -0.009216
    122 H56        -2.3460   -1.1660    1.4580 ho        1 MOL      0.399716
    123 H57        -2.1530   -4.0690    1.6110 hc        1 MOL      0.132869
    124 H58        -2.2210   -2.9550    2.8860 hc        1 MOL      0.132869
    125 H59        -3.5800   -4.0620    2.7470 hc        1 MOL      0.132869
    126 N11        -6.2190   -2.4380   -0.7290 n         1 MOL     -0.307300
    127 C39        -7.4770   -1.6800   -1.0950 c3        1 MOL     -0.286450
    128 C40        -7.6240   -0.2350   -0.5910 c         1 MOL      0.256109
    129 O19        -7.9740    0.6230   -1.3820 o         1 MOL     -0.440511
    130 C41        -8.7610   -2.3740   -0.7480 c3        1 MOL      0.470233
    131 C42        -9.1530   -3.5760   -1.6580 c3        1 MOL     -0.400518
    132 O20        -8.8010   -2.6450    0.6190 oh        1 MOL     -0.613718
    133 H60        -6.2730   -3.3680   -0.3380 hn        1 MOL      0.271919
    134 H61        -7.3890   -1.6210   -2.1850 h1        1 MOL      0.178270
    135 H62        -9.5590   -1.6640   -0.9700 h1        1 MOL      0.019375
    136 H63        -9.4630   -2.1250    1.0860 ho        1 MOL      0.359301
    137 H64       -10.2110   -3.8540   -1.6240 hc        1 MOL      0.112054
    138 H65        -8.8120   -3.4360   -2.6870 hc        1 MOL      0.112054
    139 H66        -8.6200   -4.4100   -1.1850 hc        1 MOL      0.112054
    140 N12        -7.1230    0.0770    0.6250 n         1 MOL     -0.044930
    141 C43        -7.1780    1.3890    1.2030 c3        1 MOL     -0.181794
    142 C44        -6.1710    2.3120    0.6540 c         1 MOL      0.390055
    143 O21        -6.3780    3.5290    0.4130 o         1 MOL     -0.481443
    144 C45        -7.1090    1.2650    2.7360 c3        1 MOL     -0.069013
    145 C46        -8.2720    0.3730    3.1730 c3        1 MOL      0.166489
    146 C47        -8.1770    0.1240    4.7150 c3        1 MOL     -0.109718
    147 C48        -9.3040   -0.8950    5.1830 c3        1 MOL      0.021832
    148 N13       -10.5900   -0.3270    5.1360 n4        1 MOL     -0.229073
    149 H67        -6.7800   -0.6760    1.2170 hn        1 MOL      0.202950
    150 H68        -8.1180    1.8670    0.9100 h1        1 MOL      0.114738
    151 H69        -7.1380    2.2410    3.2160 hc        1 MOL      0.054297
    152 H70        -6.1280    0.8610    3.0150 hc        1 MOL      0.054297
    153 H71        -8.3100   -0.5900    2.6660 hc        1 MOL     -0.047267
    154 H72        -9.2220    0.9000    3.0190 hc        1 MOL     -0.047267
    155 H73        -8.3220    1.0630    5.2300 hc        1 MOL      0.061727
    156 H74        -7.2220   -0.2530    5.0680 hc        1 MOL      0.061727
    157 H75        -9.1750   -1.1390    6.2340 hx        1 MOL      0.076622
    158 H76        -9.2140   -1.8330    4.6430 hx        1 MOL      0.076622
    159 H77       -10.9180   -0.2630    4.1860 hn        1 MOL      0.261592
    160 H78       -11.2830   -0.8330    5.6760 hn        1 MOL      0.261592
    161 H79       -10.4890    0.6240    5.4920 hn        1 MOL      0.261592
    162 N14        -4.9460    1.8030    0.3680 n         1 MOL     -0.111486
    163 C49        -3.9420    2.6060   -0.3830 c3        1 MOL     -0.336503
    164 C50        -4.4660    2.9000   -1.7500 c         1 MOL      0.486482
    165 O22        -4.5130    4.0770   -2.0310 o         1 MOL     -0.553014
    166 C51        -2.6190    1.9060   -0.5990 c3        1 MOL      0.155099
    167 C52        -1.9680    1.6910    0.7300 c3        1 MOL     -0.039011
    168 C53        -0.6990    0.7700    0.6190 c         1 MOL      0.773639
    169 O23         0.4780    1.3060    0.6520 o         1 MOL     -0.797756
    170 O24        -0.8320   -0.4420    0.6470 o         1 MOL     -0.797756
    171 H80        -4.7620    0.8400    0.6200 hn        1 MOL      0.199723
    172 H81        -3.6900    3.5180    0.1660 h1        1 MOL      0.156162
    173 H82        -1.8950    2.4130   -1.2250 hc        1 MOL     -0.026228
    174 H83        -2.6860    0.9420   -1.0980 hc        1 MOL     -0.026228
    175 H84        -2.6310    1.3010    1.5060 hc        1 MOL     -0.016145
    176 H85        -1.5920    2.6520    1.0680 hc        1 MOL     -0.016145
    177 N15        -4.9370    1.9730   -2.5500 n         1 MOL     -0.019110
    178 C54        -5.3230    2.3730   -3.8830 c3        1 MOL     -0.292506
    179 H86        -6.3670    2.6860   -3.8790 h1        1 MOL      0.098650
    180 H87        -4.6960    3.2040   -4.2090 h1        1 MOL      0.098650
    181 H88        -5.1980    1.5330   -4.5660 h1        1 MOL      0.098650
    182 H89        -4.9100    0.9970   -2.2770 hn        1 MOL      0.134978
    183 Ca1         1.6640   -0.9270    1.3980 Ca        1 MOL      1.765380
    184 O25         0.2730   -0.3810    3.5790 oh        1 MOL     -0.806035
    185 H90         0.6230    0.4750    3.8390 ho        1 MOL      0.387215
    186 H91        -0.5180   -0.4860    4.1020 ho        1 MOL      0.387215
    187 O26         0.4220   -3.1880    2.3820 oh        1 MOL     -0.806035
    188 H92         0.9790   -3.9530    2.4280 ho        1 MOL      0.387215
    189 H93         0.2080   -2.9950    3.2930 ho        1 MOL      0.387215
@<TRIPOS>BOND
     1    1    2 1   
     2    1    4 1   
     3    1    5 1   
     4    1    6 1   
     5    2    3 2   
     6    2    7 1   
     7    7    8 1   
     8    7   15 1   
     9    8    9 1   
    10    8   11 1   
    11    8   16 1   
    12    9   10 2   
    13    9   19 1   
    14   11   12 1   
    15   11   17 1   
    16   11   18 1   
    17   12   13 1   
    18   12   14 1   
    19   19   20 1   
    20   19   28 1   
    21   20   21 1   
    22   20   23 1   
    23   20   29 1   
    24   21   22 2   
    25   21   41 1   
    26   23   24 1   
    27   23   30 1   
    28   23   31 1   
    29   24   25 1   
    30   24   32 1   
    31   24   33 1   
    32   25   26 1   
    33   25   34 1   
    34   25   35 1   
    35   26   27 1   
    36   26   36 1   
    37   26   37 1   
    38   27   38 1   
    39   27   39 1   
    40   27   40 1   
    41   41   42 1   
    42   41   49 1   
    43   42   43 1   
    44   42   45 1   
    45   42   50 1   
    46   43   44 2   
    47   43   53 1   
    48   45   46 1   
    49   45   51 1   
    50   45   52 1   
    51   46   47 1   
    52   46   48 1   
    53   53   54 1   
    54   53   57 1   
    55   54   55 1   
    56   54   58 1   
    57   54   59 1   
    58   55   56 2   
    59   55   60 1   
    60   60   61 1   
    61   60   68 1   
    62   61   62 1   
    63   61   64 1   
    64   61   69 1   
    65   62   63 2   
    66   62   72 1   
    67   64   65 1   
    68   64   70 1   
    69   64   71 1   
    70   65   66 1   
    71   65   67 1   
    72   72   73 1   
    73   72   76 1   
    74   73   74 1   
    75   73   77 1   
    76   73   78 1   
    77   74   75 2   
    78   74   79 1   
    79   79   80 1   
    80   79   86 1   
    81   80   81 1   
    82   80   83 1   
    83   80   87 1   
    84   81   82 2   
    85   81   93 1   
    86   83   84 1   
    87   83   85 1   
    88   83   88 1   
    89   84   90 1   
    90   84   91 1   
    91   84   92 1   
    92   85   89 1   
    93   93   94 1   
    94   93  101 1   
    95   94   95 1   
    96   94   97 1   
    97   94  102 1   
    98   95   96 2   
    99   95  112 1   
   100   97   98 1   
   101   97   99 1   
   102   97  103 1   
   103   98  100 1   
   104   98  104 1   
   105   98  105 1   
   106   99  106 1   
   107   99  107 1   
   108   99  108 1   
   109  100  109 1   
   110  100  110 1   
   111  100  111 1   
   112  112  113 1   
   113  112  119 1   
   114  113  114 1   
   115  113  116 1   
   116  113  120 1   
   117  114  115 2   
   118  114  126 1   
   119  116  117 1   
   120  116  118 1   
   121  116  121 1   
   122  117  123 1   
   123  117  124 1   
   124  117  125 1   
   125  118  122 1   
   126  126  127 1   
   127  126  133 1   
   128  127  128 1   
   129  127  130 1   
   130  127  134 1   
   131  128  129 2   
   132  128  140 1   
   133  130  131 1   
   134  130  132 1   
   135  130  135 1   
   136  131  137 1   
   137  131  138 1   
   138  131  139 1   
   139  132  136 1   
   140  140  141 1   
   141  140  149 1   
   142  141  142 1   
   143  141  144 1   
   144  141  150 1   
   145  142  143 2   
   146  142  162 1   
   147  144  145 1   
   148  144  151 1   
   149  144  152 1   
   150  145  146 1   
   151  145  153 1   
   152  145  154 1   
   153  146  147 1   
   154  146  155 1   
   155  146  156 1   
   156  147  148 1   
   157  147  157 1   
   158  147  158 1   
   159  148  159 1   
   160  148  160 1   
   161  148  161 1   
   162  162  163 1   
   163  162  171 1   
   164  163  164 1   
   165  163  166 1   
   166  163  172 1   
   167  164  165 2   
   168  164  177 1   
   169  166  167 1   
   170  166  173 1   
   171  166  174 1   
   172  167  168 1   
   173  167  175 1   
   174  167  176 1   
   175  168  169 1   
   176  168  170 1   
   177  177  178 1   
   178  177  182 1   
   179  178  179 1   
   180  178  180 1   
   181  178  181 1   
   182  184  185 1   
   183  184  186 1   
   184  187  188 1   
   185  187  189 1   
@<TRIPOS>SUBSTRUCTURE
     1 MOL         1 TEMP              0 ****  ****    0 ROOT
