@<TRIPOS>MOLECULE
MOL
  178   175     1     0     0
SMALL
resp


@<TRIPOS>ATOM
      1 C1          0.7840   -3.7850    5.6150 c3        1 MOL     -0.195925
      2 C2          0.5690   -2.8280    4.4470 c         1 MOL      0.786951
      3 O1         -0.6160   -2.5820    4.1410 o         1 MOL     -0.578551
      4 H1         -0.0980   -4.4130    5.7360 hc        1 MOL      0.041849
      5 H2          1.6520   -4.4130    5.4160 hc        1 MOL      0.041849
      6 H3          0.9500   -3.2140    6.5280 hc        1 MOL      0.041849
      7 N1          1.6540   -2.3870    3.7600 n         1 MOL     -0.695647
      8 C3          1.7220   -1.8730    2.4190 c3        1 MOL      0.034341
      9 C4          1.9450   -3.0990    1.4640 c         1 MOL      0.597078
     10 O2          2.9260   -3.7650    1.6390 o         1 MOL     -0.523183
     11 C5          2.8260   -0.7900    2.2470 c3        1 MOL     -0.092992
     12 C6          3.1820   -0.3100    0.8320 c         1 MOL      0.617033
     13 O3          2.6220   -0.8740   -0.1530 o         1 MOL     -0.465067
     14 O4          3.9130    0.6990    0.6920 o         1 MOL     -0.465067
     15 H4          2.5250   -2.6340    4.2050 hn        1 MOL      0.349927
     16 H5          0.7300   -1.4620    2.2110 h1        1 MOL      0.008086
     17 H6          3.6540   -1.2350    2.8040 hc        1 MOL      0.041497
     18 H7          2.5770    0.1550    2.7360 hc        1 MOL      0.041497
     19 N2          1.1200   -3.3490    0.4070 n         1 MOL     -0.294158
     20 C7          1.1610   -4.4340   -0.5000 c3        1 MOL      0.004441
     21 C8          2.3430   -4.5280   -1.5350 c         1 MOL      0.524978
     22 O5          2.3540   -5.4250   -2.3650 o         1 MOL     -0.547449
     23 C9         -0.2200   -4.6010   -1.1570 c3        1 MOL     -0.114789
     24 H8          0.2970   -2.7560    0.3910 hn        1 MOL      0.196197
     25 H9          1.3650   -5.3530    0.0540 h1        1 MOL      0.044584
     26 H10        -0.5000   -3.8740   -1.9100 hc        1 MOL      0.047704
     27 H11        -0.2550   -5.5500   -1.7040 hc        1 MOL      0.047704
     28 H12        -0.9840   -4.6140   -0.3700 hc        1 MOL      0.047704
     29 N3          3.3160   -3.5890   -1.4540 n         1 MOL     -0.192538
     30 C10         4.6470   -3.6320   -1.9980 c3        1 MOL      0.031875
     31 C11         5.6810   -3.2010   -0.9470 c         1 MOL      0.381130
     32 O6          6.8950   -3.1370   -1.2640 o         1 MOL     -0.553540
     33 C12         4.8240   -2.7670   -3.2660 c3        1 MOL     -0.180443
     34 C13         4.2850   -1.3270   -3.1690 c         1 MOL      0.787375
     35 O7          5.1440   -0.4350   -2.9110 o         1 MOL     -0.727923
     36 O8          3.0570   -1.0930   -3.2580 o         1 MOL     -0.727923
     37 H13         3.0780   -2.7550   -0.9400 hn        1 MOL     -0.008992
     38 H14         4.8060   -4.6910   -2.1980 h1        1 MOL      0.085057
     39 H15         4.2210   -3.1530   -4.0940 hc        1 MOL      0.044068
     40 H16         5.8420   -2.7140   -3.6310 hc        1 MOL      0.044068
     41 N4          5.3150   -2.8440    0.2720 n         1 MOL      0.061736
     42 C14         6.1730   -2.4880    1.4330 c3        1 MOL     -0.412319
     43 C15         6.8510   -1.1050    1.5260 c         1 MOL      0.581724
     44 O9          7.2210   -0.5800    2.5620 o         1 MOL     -0.589088
     45 H17         4.3290   -2.8250    0.4750 hn        1 MOL     -0.048298
     46 H18         7.0020   -3.1940    1.3630 h1        1 MOL      0.159104
     47 H19         5.5650   -2.5990    2.3300 h1        1 MOL      0.159104
     48 N5          7.0080   -0.4540    0.4020 n         1 MOL     -0.147076
     49 C16         7.7410    0.8260    0.2420 c3        1 MOL     -0.104690
     50 C17         7.2630    2.0310    1.1260 c         1 MOL      0.432826
     51 O10         8.0890    2.9270    1.4160 o         1 MOL     -0.529831
     52 C18         7.5470    1.2620   -1.2440 c3        1 MOL     -0.336409
     53 C19         8.4290    0.4360   -2.1760 c         1 MOL      0.688443
     54 N6          7.8810   -0.6090   -2.8000 n         1 MOL     -0.658577
     55 O11         9.5550    0.7810   -2.4910 o         1 MOL     -0.625638
     56 H20         6.5870   -0.7660   -0.4570 hn        1 MOL      0.076064
     57 H21         8.8120    0.6250    0.3180 h1        1 MOL      0.135641
     58 H22         7.8930    2.2990   -1.2860 hc        1 MOL      0.130568
     59 H23         6.5250    1.2830   -1.6200 hc        1 MOL      0.130568
     60 H24         6.9330   -0.8920   -2.5950 hn        1 MOL      0.314643
     61 H25         8.3990   -1.0310   -3.5590 hn        1 MOL      0.314643
     62 N7          6.0890    1.8850    1.8130 n         1 MOL     -0.045669
     63 C20         5.6370    2.8440    2.9050 c3        1 MOL     -0.041223
     64 C21         4.6760    3.9170    2.2770 c         1 MOL      0.593862
     65 O12         4.8130    5.1260    2.5580 o         1 MOL     -0.596066
     66 H26         5.4230    1.2150    1.4510 hn        1 MOL      0.039943
     67 H27         6.4560    3.3730    3.3850 h1        1 MOL      0.037233
     68 H28         5.0130    2.3470    3.6450 h1        1 MOL      0.037233
     69 N8          3.7860    3.4420    1.4180 n         1 MOL     -0.309927
     70 C22         2.5610    4.0990    0.9260 c3        1 MOL     -0.373734
     71 C23         1.4390    3.0270    0.7960 c         1 MOL      0.626009
     72 O13         1.4850    2.2190   -0.1530 o         1 MOL     -0.569429
     73 C24         2.9450    4.8420   -0.3730 c3        1 MOL      0.642170
     74 C25         3.2330    6.3160   -0.1130 c3        1 MOL     -0.579501
     75 O14         4.0180    4.3350   -1.1580 oh        1 MOL     -0.667452
     76 H29         3.8820    2.4600    1.2140 hn        1 MOL      0.144570
     77 H30         2.3160    4.7740    1.7380 h1        1 MOL      0.138537
     78 H31         2.0700    4.7860   -1.0330 h1        1 MOL     -0.071915
     79 H32         3.8510    3.4240   -1.4200 ho        1 MOL      0.401756
     80 H33         4.1410    6.3650    0.4860 hc        1 MOL      0.139488
     81 H34         3.4540    6.8020   -1.0730 hc        1 MOL      0.139488
     82 H35         2.4160    6.7990    0.4140 hc        1 MOL      0.139488
     83 N9          0.4970    3.0110    1.7150 n         1 MOL     -0.390875
     84 C26        -0.5920    2.0550    1.7260 c3        1 MOL      0.002137
     85 C27        -1.7980    2.5580    0.8570 c         1 MOL      0.431294
     86 O15        -2.4100    3.5940    1.2800 o         1 MOL     -0.576739
     87 C28        -1.0990    1.8730    3.2120 c3        1 MOL      0.167630
     88 C29        -0.0330    1.3310    4.2200 c3        1 MOL      0.117954
     89 C30        -2.1980    0.7460    3.1640 c3        1 MOL     -0.420067
     90 C31        -0.5540    1.5320    5.6800 c3        1 MOL     -0.104107
     91 H36         0.5250    3.7400    2.4110 hn        1 MOL      0.261917
     92 H37        -0.1460    1.0820    1.5270 h1        1 MOL      0.102084
     93 H38        -1.6040    2.7940    3.5030 hc        1 MOL     -0.009045
     94 H39         0.8140    1.9710    4.0050 hc        1 MOL     -0.041035
     95 H40         0.1480    0.2680    4.0210 hc        1 MOL     -0.041035
     96 H41        -1.8370   -0.1410    2.6470 hc        1 MOL      0.094592
     97 H42        -2.5400    0.4590    4.1540 hc        1 MOL      0.094592
     98 H43        -3.0820    1.0470    2.6050 hc        1 MOL      0.094592
     99 H44         0.2790    1.1770    6.2850 hc        1 MOL      0.016097
    100 H45        -0.7510    2.5870    5.8930 hc        1 MOL      0.016097
    101 H46        -1.4480    0.9670    5.9400 hc        1 MOL      0.016097
    102 N10        -2.1590    1.8860   -0.2390 n         1 MOL     -0.117383
    103 C32        -3.3020    2.1580   -1.0700 c3        1 MOL      0.173648
    104 C33        -4.5920    1.5570   -0.4850 c         1 MOL      0.303060
    105 O16        -4.5760    0.6400    0.2650 o         1 MOL     -0.164158
    106 C34        -3.0340    1.6850   -2.4980 c3        1 MOL     -0.185941
    107 C35        -1.7750    2.1550   -3.2230 c         1 MOL      0.674463
    108 O17        -1.8100    3.0610   -4.0980 o         1 MOL     -0.682213
    109 O18        -0.7110    1.6170   -2.8500 o         1 MOL     -0.682213
    110 H47        -1.6100    1.0500   -0.3370 hn        1 MOL      0.006985
    111 H48        -3.5310    3.2200   -1.1700 h1        1 MOL      0.024249
    112 H49        -3.8900    1.9570   -3.1080 hc        1 MOL      0.033109
    113 H50        -3.0420    0.6050   -2.3500 hc        1 MOL      0.033109
    114 N11        -5.7810    1.9570   -0.9350 n         1 MOL     -0.573480
    115 C36        -7.1530    1.5270   -0.4030 c3        1 MOL      0.190580
    116 C37        -7.3050    0.0070   -0.4020 c         1 MOL      0.348164
    117 O19        -7.5540   -0.4810    0.6950 o         1 MOL     -0.523319
    118 C38        -8.2490    2.2810   -1.1060 c3        1 MOL     -0.089397
    119 C39        -9.7050    2.0640   -0.7150 ca        1 MOL      0.165953
    120 C40       -10.1360    2.2540    0.5980 ca        1 MOL     -0.219604
    121 C41       -10.6800    1.6870   -1.6340 ca        1 MOL     -0.219604
    122 C42       -11.4150    1.8470    1.0670 ca        1 MOL     -0.065812
    123 C43       -11.9830    1.3950   -1.2230 ca        1 MOL     -0.065812
    124 C44       -12.3180    1.3880    0.1420 ca        1 MOL     -0.155685
    125 H51        -5.7700    2.6740   -1.6460 hn        1 MOL      0.315350
    126 H52        -7.1520    1.8190    0.6530 h1        1 MOL      0.085528
    127 H53        -8.1870    2.1110   -2.1820 hc        1 MOL      0.036213
    128 H54        -8.1450    3.3620   -1.0310 hc        1 MOL      0.036213
    129 H55        -9.3890    2.5340    1.3400 ha        1 MOL      0.113999
    130 H56       -10.4390    1.7980   -2.6740 ha        1 MOL      0.113999
    131 H57       -11.6600    1.8730    2.1150 ha        1 MOL      0.104773
    132 H58       -12.7100    1.0270   -1.9390 ha        1 MOL      0.104773
    133 H59       -13.2730    1.0520    0.5280 ha        1 MOL      0.110329
    134 N12        -6.9430   -0.7540   -1.4360 n         1 MOL     -0.084989
    135 C45        -7.0630   -2.1860   -1.3740 c3        1 MOL      0.049073
    136 C46        -6.1190   -2.8730   -0.3390 c         1 MOL      0.271229
    137 O20        -6.2710   -4.0700   -0.0330 o         1 MOL     -0.512250
    138 C47        -6.5550   -2.6580   -2.7820 c3        1 MOL     -0.137112
    139 C48        -5.8140   -1.4420   -3.4450 c3        1 MOL     -0.010162
    140 C49        -6.5740   -0.3180   -2.7970 c3        1 MOL     -0.047304
    141 H60        -8.1140   -2.4760   -1.2540 h1        1 MOL      0.073044
    142 H61        -5.8820   -3.5080   -2.6420 hc        1 MOL      0.053191
    143 H62        -7.4050   -3.0190   -3.3540 hc        1 MOL      0.053191
    144 H63        -4.8190   -1.4490   -3.0170 hc        1 MOL      0.044162
    145 H64        -5.7910   -1.4470   -4.5430 hc        1 MOL      0.044162
    146 H65        -5.9360    0.5570   -2.9140 h1        1 MOL      0.031000
    147 H66        -7.5310   -0.1900   -3.3190 h1        1 MOL      0.031000
    148 N13        -5.1240   -2.1380    0.1410 n         1 MOL     -0.020652
    149 C50        -4.0330   -2.6510    1.0110 c3        1 MOL     -0.151636
    150 C51        -4.6410   -2.3970    2.4850 c         1 MOL      0.457604
    151 O21        -4.7170   -3.2720    3.3260 o         1 MOL     -0.549806
    152 C52        -2.6720   -1.8790    0.7630 c3        1 MOL      0.036193
    153 C53        -2.2250   -1.9050   -0.6940 c3        1 MOL      0.100691
    154 C54        -0.9100   -1.1930   -1.0700 c         1 MOL      0.491452
    155 O22        -0.3730   -0.3200   -0.3240 o         1 MOL     -0.623347
    156 O23        -0.3310   -1.4730   -2.1650 o         1 MOL     -0.623347
    157 H67        -4.9600   -1.1900   -0.1610 hn        1 MOL      0.173348
    158 H68        -3.9450   -3.7280    0.9110 h1        1 MOL      0.103734
    159 H69        -1.9150   -2.3820    1.3730 hc        1 MOL      0.024555
    160 H70        -2.7720   -0.8180    0.9810 hc        1 MOL      0.024555
    161 H71        -3.0460   -1.5040   -1.2780 hc        1 MOL     -0.041990
    162 H72        -2.1370   -2.9350   -1.0320 hc        1 MOL     -0.041990
    163 N14        -5.1890   -1.2150    2.7130 n         1 MOL      0.004236
    164 C55        -5.9490   -0.8810    3.9200 c3        1 MOL     -0.417302
    165 H73        -6.6790   -1.6660    4.1170 h1        1 MOL      0.137896
    166 H74        -5.2690   -0.7980    4.7670 h1        1 MOL      0.137896
    167 H75        -6.4670    0.0670    3.7740 h1        1 MOL      0.137896
    168 H76        -5.1250   -0.5520    1.9470 hn        1 MOL      0.043749
    169 Ca1         1.4160    0.4280   -2.0600 Ca        1 MOL      1.664621
    170 O24         1.1970    0.3470   -4.7850 oh        1 MOL     -0.813969
    171 H77         0.7410   -0.4000   -5.1530 ho        1 MOL      0.395101
    172 H78         1.7330    0.6820   -5.4990 ho        1 MOL      0.395101
    173 O25         3.9700    1.6290   -1.6080 oh        1 MOL     -0.813969
    174 H79         4.5950    1.1380   -2.1390 ho        1 MOL      0.395101
    175 H80         4.0690    1.2710   -0.7220 ho        1 MOL      0.395101
    176 O26         1.6330    2.8840   -3.3170 oh        1 MOL     -0.813969
    177 H81         2.0420    3.4410   -3.9800 ho        1 MOL      0.395101
    178 H82         0.7350    2.7710   -3.6270 ho        1 MOL      0.395101
@<TRIPOS>BOND
     1    1    2 1   
     2    1    4 1   
     3    1    5 1   
     4    1    6 1   
     5    2    3 2   
     6    2    7 1   
     7    7    8 1   
     8    7   15 1   
     9    8    9 1   
    10    8   11 1   
    11    8   16 1   
    12    9   10 2   
    13    9   19 1   
    14   11   12 1   
    15   11   17 1   
    16   11   18 1   
    17   12   13 1   
    18   12   14 1   
    19   19   20 1   
    20   19   24 1   
    21   20   21 1   
    22   20   23 1   
    23   20   25 1   
    24   21   22 2   
    25   21   29 1   
    26   23   26 1   
    27   23   27 1   
    28   23   28 1   
    29   29   30 1   
    30   29   37 1   
    31   30   31 1   
    32   30   33 1   
    33   30   38 1   
    34   31   32 2   
    35   31   41 1   
    36   33   34 1   
    37   33   39 1   
    38   33   40 1   
    39   34   35 1   
    40   34   36 1   
    41   41   42 1   
    42   41   45 1   
    43   42   43 1   
    44   42   46 1   
    45   42   47 1   
    46   43   44 2   
    47   43   48 1   
    48   48   49 1   
    49   48   56 1   
    50   49   50 1   
    51   49   52 1   
    52   49   57 1   
    53   50   51 2   
    54   50   62 1   
    55   52   53 1   
    56   52   58 1   
    57   52   59 1   
    58   53   54 1   
    59   53   55 2   
    60   54   60 1   
    61   54   61 1   
    62   62   63 1   
    63   62   66 1   
    64   63   64 1   
    65   63   67 1   
    66   63   68 1   
    67   64   65 2   
    68   64   69 1   
    69   69   70 1   
    70   69   76 1   
    71   70   71 1   
    72   70   73 1   
    73   70   77 1   
    74   71   72 2   
    75   71   83 1   
    76   73   74 1   
    77   73   75 1   
    78   73   78 1   
    79   74   80 1   
    80   74   81 1   
    81   74   82 1   
    82   75   79 1   
    83   83   84 1   
    84   83   91 1   
    85   84   85 1   
    86   84   87 1   
    87   84   92 1   
    88   85   86 2   
    89   85  102 1   
    90   87   88 1   
    91   87   89 1   
    92   87   93 1   
    93   88   90 1   
    94   88   94 1   
    95   88   95 1   
    96   89   96 1   
    97   89   97 1   
    98   89   98 1   
    99   90   99 1   
   100   90  100 1   
   101   90  101 1   
   102  102  103 1   
   103  102  110 1   
   104  103  104 1   
   105  103  106 1   
   106  103  111 1   
   107  104  105 2   
   108  104  114 1   
   109  106  107 1   
   110  106  112 1   
   111  106  113 1   
   112  107  108 1   
   113  107  109 1   
   114  114  115 1   
   115  114  125 1   
   116  115  116 1   
   117  115  118 1   
   118  115  126 1   
   119  116  117 2   
   120  116  134 1   
   121  118  119 1   
   122  118  127 1   
   123  118  128 1   
   124  119  120 ar  
   125  119  121 ar  
   126  120  122 ar  
   127  120  129 1   
   128  121  123 ar  
   129  121  130 1   
   130  122  124 ar  
   131  122  131 1   
   132  123  124 ar  
   133  123  132 1   
   134  124  133 1   
   135  134  135 1   
   136  134  140 1   
   137  135  136 1   
   138  135  138 1   
   139  135  141 1   
   140  136  137 2   
   141  136  148 1   
   142  138  139 1   
   143  138  142 1   
   144  138  143 1   
   145  139  140 1   
   146  139  144 1   
   147  139  145 1   
   148  140  146 1   
   149  140  147 1   
   150  148  149 1   
   151  148  157 1   
   152  149  150 1   
   153  149  152 1   
   154  149  158 1   
   155  150  151 2   
   156  150  163 1   
   157  152  153 1   
   158  152  159 1   
   159  152  160 1   
   160  153  154 1   
   161  153  161 1   
   162  153  162 1   
   163  154  155 1   
   164  154  156 1   
   165  163  164 1   
   166  163  168 1   
   167  164  165 1   
   168  164  166 1   
   169  164  167 1   
   170  170  171 1   
   171  170  172 1   
   172  173  174 1   
   173  173  175 1   
   174  176  177 1   
   175  176  178 1   
@<TRIPOS>SUBSTRUCTURE
     1 MOL         1 TEMP              0 ****  ****    0 ROOT
