@<TRIPOS>MOLECULE
MOL
  189   185     1     0     0
SMALL
resp


@<TRIPOS>ATOM
      1 C1          0.2350   -4.2970    5.7690 c3        1 MOL     -0.368024
      2 C2          0.7280   -3.7970    4.4040 c         1 MOL      0.726530
      3 O1          0.8300   -2.6400    4.1690 o         1 MOL     -0.587503
      4 H1          0.3580   -5.3780    5.8250 hc        1 MOL      0.089407
      5 H2          0.8160   -3.8240    6.5610 hc        1 MOL      0.089407
      6 H3         -0.8180   -4.0440    5.8910 hc        1 MOL      0.089407
      7 N1          1.2260   -4.6470    3.5580 n         1 MOL     -0.506825
      8 C3          1.9320   -4.2340    2.3360 c3        1 MOL      0.153253
      9 C4          1.8550   -5.3170    1.2300 c         1 MOL      0.430839
     10 O2          2.3780   -6.4290    1.4460 o         1 MOL     -0.582127
     11 C5          3.4010   -3.9670    2.6020 c3        1 MOL     -0.329250
     12 C6          4.1350   -3.2410    1.4210 c         1 MOL      0.786678
     13 O3          5.2710   -2.8520    1.7120 o         1 MOL     -0.704106
     14 O4          3.5030   -2.7870    0.4600 o         1 MOL     -0.704106
     15 H4          1.1230   -5.6400    3.7010 hn        1 MOL      0.287712
     16 H5          1.5550   -3.3080    1.9060 h1        1 MOL     -0.031171
     17 H6          3.8930   -4.9350    2.6850 hc        1 MOL      0.084505
     18 H7          3.5750   -3.5810    3.5990 hc        1 MOL      0.084505
     19 N2          1.3280   -4.9660    0.0680 n         1 MOL     -0.074412
     20 C7          1.1750   -5.8400   -1.1440 c3        1 MOL     -0.259642
     21 C8          1.9390   -5.3240   -2.3940 c         1 MOL      0.575534
     22 O5          1.8370   -5.9860   -3.4460 o         1 MOL     -0.576173
     23 C9         -0.3340   -6.1720   -1.3790 c3        1 MOL      0.265718
     24 C10        -1.1800   -4.8890   -1.8210 c3        1 MOL      0.032307
     25 C11        -0.8790   -6.8700   -0.1120 c3        1 MOL     -0.227621
     26 C12        -2.5800   -5.2160   -2.1530 c3        1 MOL     -0.213887
     27 H8          0.9530   -4.0240    0.0050 hn        1 MOL      0.104689
     28 H9          1.6700   -6.7860   -0.9580 h1        1 MOL      0.110000
     29 H10        -0.3480   -6.7600   -2.2970 hc        1 MOL     -0.046924
     30 H11        -0.6870   -4.3790   -2.6500 hc        1 MOL      0.050896
     31 H12        -1.3270   -4.1690   -1.0040 hc        1 MOL      0.050896
     32 H13        -0.8300   -6.2280    0.7690 hc        1 MOL      0.037065
     33 H14        -1.9090   -7.1700   -0.2670 hc        1 MOL      0.037065
     34 H15        -0.2990   -7.7630    0.1050 hc        1 MOL      0.037065
     35 H16        -3.0400   -4.3780   -2.6740 hc        1 MOL      0.039606
     36 H17        -2.6320   -6.1140   -2.7730 hc        1 MOL      0.039606
     37 H18        -3.1360   -5.4230   -1.2330 hc        1 MOL      0.039606
     38 N3          2.7440   -4.2420   -2.2900 n         1 MOL     -0.399593
     39 C13         3.5440   -3.7580   -3.4320 c3        1 MOL      0.017584
     40 C14         4.9420   -3.1590   -3.1500 c         1 MOL      0.293521
     41 O6          5.7920   -3.0080   -4.0500 o         1 MOL     -0.517216
     42 C15         2.7060   -2.7330   -4.2470 c3        1 MOL     -0.111235
     43 C16         2.0400   -1.6310   -3.4610 c         1 MOL      0.730757
     44 O7          2.6260   -1.3970   -2.3940 o         1 MOL     -0.724652
     45 O8          0.9650   -1.0870   -3.7910 o         1 MOL     -0.724652
     46 H19         2.7760   -3.6980   -1.4450 hn        1 MOL      0.283224
     47 H20         3.6620   -4.5380   -4.1800 h1        1 MOL      0.086612
     48 H21         1.9650   -3.2720   -4.8320 hc        1 MOL      0.026359
     49 H22         3.3890   -2.2880   -4.9700 hc        1 MOL      0.026359
     50 N4          5.1480   -2.7340   -1.9250 n         1 MOL     -0.048018
     51 C17         6.4610   -2.3510   -1.3300 c3        1 MOL     -0.072217
     52 C18         6.9870   -0.9550   -1.7220 c         1 MOL      0.473751
     53 O9          8.1810   -0.8720   -2.0890 o         1 MOL     -0.599764
     54 H23         4.4250   -2.8240   -1.2300 hn        1 MOL      0.098634
     55 H24         7.1810   -3.1400   -1.5470 h1        1 MOL      0.054102
     56 H25         6.2340   -2.3380   -0.2620 h1        1 MOL      0.054102
     57 N5          6.1220    0.0790   -1.8040 n         1 MOL     -0.188983
     58 C19         6.4390    1.4170   -2.3050 c3        1 MOL     -0.114176
     59 C20         6.9570    2.3850   -1.1630 c         1 MOL      0.413586
     60 O10         7.3840    3.4800   -1.4590 o         1 MOL     -0.530986
     61 C21         5.2740    1.9780   -3.0930 c3        1 MOL     -0.180107
     62 C22         3.9370    1.9700   -2.3230 c         1 MOL      0.663891
     63 O11         3.8260    1.2530   -1.2830 o         1 MOL     -0.679341
     64 O12         3.0240    2.7200   -2.7370 o         1 MOL     -0.679341
     65 H26         5.3060   -0.0800   -1.2300 hn        1 MOL      0.173040
     66 H27         7.2550    1.3390   -3.0200 h1        1 MOL      0.148697
     67 H28         5.1510    1.5140   -4.0660 hc        1 MOL      0.069723
     68 H29         5.4940    3.0110   -3.3610 hc        1 MOL      0.069723
     69 N6          7.0940    1.9130    0.0580 n         1 MOL     -0.234446
     70 C23         7.4680    2.7960    1.1700 c3        1 MOL     -0.250765
     71 C24         6.2520    3.6980    1.6950 c         1 MOL      0.542938
     72 O13         6.4160    4.5950    2.4910 o         1 MOL     -0.567857
     73 H30         6.7290    0.9890    0.2430 hn        1 MOL      0.226968
     74 H31         8.2890    3.4460    0.8650 h1        1 MOL      0.120569
     75 H32         7.7880    2.1890    2.0240 h1        1 MOL      0.120569
     76 N7          5.0690    3.4730    1.0950 n         1 MOL     -0.321526
     77 C25         3.8210    4.1320    1.4990 c3        1 MOL     -0.055038
     78 C26         2.6330    3.1740    1.6890 c         1 MOL      0.486985
     79 O14         2.7470    2.0280    1.2450 o         1 MOL     -0.553455
     80 C27         3.4440    5.2740    0.4770 c3        1 MOL      0.204895
     81 C28         4.2800    6.4960    0.4820 c3        1 MOL     -0.468141
     82 C29         4.0360    7.3700   -0.7610 c         1 MOL      0.622485
     83 N8          4.7930    7.1970   -1.8060 n         1 MOL     -0.691820
     84 O15         3.1300    8.2300   -0.8110 o         1 MOL     -0.584285
     85 H33         4.9740    2.6870    0.4760 hn        1 MOL      0.277896
     86 H34         4.0940    4.6720    2.4180 h1        1 MOL      0.077154
     87 H35         2.4080    5.5870    0.4870 hc        1 MOL      0.040044
     88 H36         3.3880    4.8160   -0.5070 hc        1 MOL      0.040044
     89 H37         5.3550    6.2840    0.5020 hc        1 MOL      0.127977
     90 H38         4.0780    7.0810    1.3840 hc        1 MOL      0.127977
     91 H39         5.6140    6.6300   -1.6890 hn        1 MOL      0.341008
     92 H40         4.5960    7.7710   -2.6090 hn        1 MOL      0.341008
     93 N9          1.5330    3.6390    2.2380 n         1 MOL     -0.576581
     94 C30         0.3180    2.8120    2.2930 c3        1 MOL      0.268266
     95 C31        -0.7270    3.2160    1.2750 c         1 MOL      0.458979
     96 O16        -1.0610    4.4460    1.2610 o         1 MOL     -0.605688
     97 C32        -0.2580    2.7770    3.7160 c3        1 MOL      0.477458
     98 C33         0.7360    2.1820    4.6670 c3        1 MOL     -0.420080
     99 C34        -0.7460    4.0540    4.3540 c3        1 MOL     -0.420080
    100 H41         1.6010    4.6330    2.4310 hn        1 MOL      0.285861
    101 H42         0.5580    1.7460    2.1610 h1        1 MOL      0.037485
    102 H43        -1.1460    2.1610    3.6270 hc        1 MOL     -0.105901
    103 H44         1.6420    2.7860    4.6780 hc        1 MOL      0.079874
    104 H45         0.4780    2.2890    5.7230 hc        1 MOL      0.079874
    105 H46         1.0100    1.1480    4.4460 hc        1 MOL      0.079874
    106 H47         0.0510    4.7010    4.7310 hc        1 MOL      0.079874
    107 H48        -1.4040    4.6290    3.7030 hc        1 MOL      0.079874
    108 H49        -1.4270    3.7180    5.1280 hc        1 MOL      0.079874
    109 N10        -1.2730    2.2880    0.5160 n         1 MOL     -0.237746
    110 C35        -2.4620    2.4760   -0.2860 c3        1 MOL      0.124623
    111 C36        -3.7120    2.4310    0.7030 c         1 MOL      0.157008
    112 O17        -3.6790    1.8620    1.8090 o         1 MOL     -0.371421
    113 C37        -2.5250    1.4200   -1.2950 c3        1 MOL     -0.321864
    114 C38        -3.5770    1.6680   -2.3880 c         1 MOL      0.755160
    115 N11        -3.5390    2.8010   -3.0850 n         1 MOL     -0.778778
    116 O18        -4.4420    0.8500   -2.7140 o         1 MOL     -0.571137
    117 H50        -0.9610    1.3260    0.5810 hn        1 MOL      0.137419
    118 H51        -2.3620    3.3860   -0.8610 h1        1 MOL      0.059124
    119 H52        -2.7760    0.4460   -0.8560 hc        1 MOL      0.132382
    120 H53        -1.4990    1.3890   -1.6600 hc        1 MOL      0.132382
    121 H54        -2.9460    3.5670   -2.7850 hn        1 MOL      0.329225
    122 H55        -4.1870    2.9260   -3.8470 hn        1 MOL      0.329225
    123 N12        -4.8620    2.9360    0.2740 n         1 MOL     -0.071878
    124 C39        -6.2390    2.6610    0.8020 c3        1 MOL      0.245966
    125 C40        -6.4920    1.2340    1.0510 c         1 MOL      0.194804
    126 O19        -6.9950    0.8930    2.0850 o         1 MOL     -0.540037
    127 C41        -7.3020    3.3760    0.0380 c3        1 MOL     -0.512564
    128 C42        -7.4720    3.0640   -1.4000 ca        1 MOL      0.176397
    129 C43        -6.7580    3.8290   -2.3370 ca        1 MOL     -0.143663
    130 C44        -8.4520    2.1670   -1.8290 ca        1 MOL     -0.143663
    131 C45        -6.8650    3.5590   -3.6840 ca        1 MOL     -0.292595
    132 C46        -8.5840    1.9780   -3.1880 ca        1 MOL     -0.292595
    133 C47        -7.7950    2.6070   -4.1320 ca        1 MOL      0.320693
    134 O20        -8.0870    2.4250   -5.4740 oh        1 MOL     -0.450294
    135 H56        -4.8340    3.6170   -0.4740 hn        1 MOL      0.091399
    136 H57        -6.2720    3.1560    1.7670 h1        1 MOL      0.039346
    137 H58        -7.0990    4.4290    0.2260 hc        1 MOL      0.148822
    138 H59        -8.2410    3.0400    0.5020 hc        1 MOL      0.148822
    139 H60        -6.1640    4.6650   -1.9720 ha        1 MOL      0.124039
    140 H61        -9.0500    1.6130   -1.1200 ha        1 MOL      0.124039
    141 H62        -6.2370    4.1480   -4.3320 ha        1 MOL      0.149342
    142 H63        -9.2860    1.2090   -3.4750 ha        1 MOL      0.149342
    143 H64        -7.5460    2.9880   -6.0300 ho        1 MOL      0.316088
    144 N13        -6.1370    0.3070    0.1620 n         1 MOL      0.378677
    145 C48        -6.2840   -1.1930    0.2490 c3        1 MOL     -0.495447
    146 C49        -5.3520   -1.9260    1.3080 c         1 MOL      0.612795
    147 O21        -5.3850   -3.1280    1.4530 o         1 MOL     -0.550450
    148 C50        -6.2290   -1.8550   -1.0930 c3        1 MOL      0.247143
    149 C51        -7.2610   -1.4580   -2.2190 c3        1 MOL     -0.060084
    150 C52        -8.7070   -1.6920   -1.8120 c         1 MOL      0.651117
    151 O22        -9.3750   -0.6990   -1.3710 o         1 MOL     -0.704293
    152 O23        -9.1870   -2.8300   -1.9890 o         1 MOL     -0.704293
    153 H65        -5.6450    0.6690   -0.6510 hn        1 MOL      0.030006
    154 H66        -7.2610   -1.5340    0.5780 h1        1 MOL      0.174235
    155 H67        -6.3000   -2.9410   -1.0230 hc        1 MOL     -0.044020
    156 H68        -5.2350   -1.7740   -1.5440 hc        1 MOL     -0.044020
    157 H69        -7.0970   -2.1240   -3.0580 hc        1 MOL     -0.003045
    158 H70        -7.0880   -0.4370   -2.5660 hc        1 MOL     -0.003045
    159 N14        -4.5230   -1.1580    2.0400 n         1 MOL     -0.184664
    160 C53        -3.4360   -1.6330    2.9480 c3        1 MOL     -0.064238
    161 C54        -3.7390   -1.1050    4.3180 c         1 MOL      0.476915
    162 O24        -3.8770   -1.8390    5.2850 o         1 MOL     -0.538762
    163 C55        -2.0720   -1.2700    2.4040 c3        1 MOL      0.045289
    164 C56        -1.5540   -2.0720    1.2190 c3        1 MOL      0.005048
    165 C57        -0.3160   -1.5010    0.6790 c         1 MOL      0.795217
    166 O25         0.5580   -2.2590    0.0640 o         1 MOL     -0.733857
    167 O26        -0.0730   -0.2930    0.6480 o         1 MOL     -0.733857
    168 H71        -4.5040   -0.1630    1.8700 hn        1 MOL     -0.026620
    169 H72        -3.6500   -2.7040    2.9550 h1        1 MOL      0.062650
    170 H73        -1.3250   -1.1430    3.1910 hc        1 MOL     -0.024294
    171 H74        -2.2250   -0.2390    2.0720 hc        1 MOL     -0.024294
    172 H75        -2.3140   -2.0730    0.4420 hc        1 MOL      0.006728
    173 H76        -1.3890   -3.1050    1.5580 hc        1 MOL      0.006728
    174 N15        -3.9320    0.2400    4.3630 n         1 MOL     -0.186370
    175 C58        -4.3910    0.9830    5.5250 c3        1 MOL     -0.127385
    176 H77        -4.7700    1.9550    5.2080 h1        1 MOL      0.057328
    177 H78        -5.1860    0.4280    6.0230 h1        1 MOL      0.057328
    178 H79        -3.5600    1.1270    6.2170 h1        1 MOL      0.057328
    179 H80        -3.7580    0.8250    3.5600 hn        1 MOL      0.250441
    180 Ca1         2.4470   -0.2960   -0.0010 Ca        1 MOL      1.752416
    181 O27         2.2430   -0.7090    2.7600 oh        1 MOL     -0.826867
    182 O28         0.8730    1.2320   -1.8240 oh        1 MOL     -0.826867
    183 H81         1.6510   -1.3450    3.1510 ho        1 MOL      0.402464
    184 H82         0.7320    0.6220   -2.5540 ho        1 MOL      0.402464
    185 H83         2.9790   -0.6600    3.3700 ho        1 MOL      0.402464
    186 H84         1.4040    1.9250   -2.2020 ho        1 MOL      0.402464
    187 O29         5.2990   -0.2210    0.9660 oh        1 MOL     -0.826867
    188 H85         5.4710   -1.1590    0.9660 ho        1 MOL      0.402464
    189 H86         5.4600    0.0610    1.8630 ho        1 MOL      0.402464
@<TRIPOS>BOND
     1    1    2 1   
     2    1    4 1   
     3    1    5 1   
     4    1    6 1   
     5    2    3 2   
     6    2    7 1   
     7    7    8 1   
     8    7   15 1   
     9    8    9 1   
    10    8   11 1   
    11    8   16 1   
    12    9   10 2   
    13    9   19 1   
    14   11   12 1   
    15   11   17 1   
    16   11   18 1   
    17   12   13 1   
    18   12   14 1   
    19   19   20 1   
    20   19   27 1   
    21   20   21 1   
    22   20   23 1   
    23   20   28 1   
    24   21   22 2   
    25   21   38 1   
    26   23   24 1   
    27   23   25 1   
    28   23   29 1   
    29   24   26 1   
    30   24   30 1   
    31   24   31 1   
    32   25   32 1   
    33   25   33 1   
    34   25   34 1   
    35   26   35 1   
    36   26   36 1   
    37   26   37 1   
    38   38   39 1   
    39   38   46 1   
    40   39   40 1   
    41   39   42 1   
    42   39   47 1   
    43   40   41 2   
    44   40   50 1   
    45   42   43 1   
    46   42   48 1   
    47   42   49 1   
    48   43   44 1   
    49   43   45 1   
    50   50   51 1   
    51   50   54 1   
    52   51   52 1   
    53   51   55 1   
    54   51   56 1   
    55   52   53 2   
    56   52   57 1   
    57   57   58 1   
    58   57   65 1   
    59   58   59 1   
    60   58   61 1   
    61   58   66 1   
    62   59   60 2   
    63   59   69 1   
    64   61   62 1   
    65   61   67 1   
    66   61   68 1   
    67   62   63 1   
    68   62   64 1   
    69   69   70 1   
    70   69   73 1   
    71   70   71 1   
    72   70   74 1   
    73   70   75 1   
    74   71   72 2   
    75   71   76 1   
    76   76   77 1   
    77   76   85 1   
    78   77   78 1   
    79   77   80 1   
    80   77   86 1   
    81   78   79 2   
    82   78   93 1   
    83   80   81 1   
    84   80   87 1   
    85   80   88 1   
    86   81   82 1   
    87   81   89 1   
    88   81   90 1   
    89   82   83 1   
    90   82   84 2   
    91   83   91 1   
    92   83   92 1   
    93   93   94 1   
    94   93  100 1   
    95   94   95 1   
    96   94   97 1   
    97   94  101 1   
    98   95   96 2   
    99   95  109 1   
   100   97   98 1   
   101   97   99 1   
   102   97  102 1   
   103   98  103 1   
   104   98  104 1   
   105   98  105 1   
   106   99  106 1   
   107   99  107 1   
   108   99  108 1   
   109  109  110 1   
   110  109  117 1   
   111  110  111 1   
   112  110  113 1   
   113  110  118 1   
   114  111  112 2   
   115  111  123 1   
   116  113  114 1   
   117  113  119 1   
   118  113  120 1   
   119  114  115 1   
   120  114  116 2   
   121  115  121 1   
   122  115  122 1   
   123  123  124 1   
   124  123  135 1   
   125  124  125 1   
   126  124  127 1   
   127  124  136 1   
   128  125  126 2   
   129  125  144 1   
   130  127  128 1   
   131  127  137 1   
   132  127  138 1   
   133  128  129 ar  
   134  128  130 ar  
   135  129  131 ar  
   136  129  139 1   
   137  130  132 ar  
   138  130  140 1   
   139  131  133 ar  
   140  131  141 1   
   141  132  133 ar  
   142  132  142 1   
   143  133  134 1   
   144  134  143 1   
   145  144  145 1   
   146  144  153 1   
   147  145  146 1   
   148  145  148 1   
   149  145  154 1   
   150  146  147 2   
   151  146  159 1   
   152  148  149 1   
   153  148  155 1   
   154  148  156 1   
   155  149  150 1   
   156  149  157 1   
   157  149  158 1   
   158  150  151 1   
   159  150  152 1   
   160  159  160 1   
   161  159  168 1   
   162  160  161 1   
   163  160  163 1   
   164  160  169 1   
   165  161  162 2   
   166  161  174 1   
   167  163  164 1   
   168  163  170 1   
   169  163  171 1   
   170  164  165 1   
   171  164  172 1   
   172  164  173 1   
   173  165  166 1   
   174  165  167 1   
   175  174  175 1   
   176  174  179 1   
   177  175  176 1   
   178  175  177 1   
   179  175  178 1   
   180  181  183 1   
   181  181  185 1   
   182  182  184 1   
   183  182  186 1   
   184  187  188 1   
   185  187  189 1   
@<TRIPOS>SUBSTRUCTURE
     1 MOL         1 TEMP              0 ****  ****    0 ROOT
