@<TRIPOS>MOLECULE
MOL
  189   185     1     0     0
SMALL
resp


@<TRIPOS>ATOM
      1 C1          0.0960    2.4200    5.1450 c3        1 MOL     -0.341659
      2 C2         -0.4570    2.3760    3.7430 c         1 MOL      0.760037
      3 O1          0.3110    2.6150    2.8070 o         1 MOL     -0.678119
      4 H1          1.1840    2.3710    5.1070 hc        1 MOL      0.080809
      5 H2         -0.2090    3.3500    5.6270 hc        1 MOL      0.080809
      6 H3         -0.2870    1.5730    5.7140 hc        1 MOL      0.080809
      7 N1         -1.7220    2.0000    3.5220 n         1 MOL     -0.669647
      8 C3         -2.3500    1.6850    2.2790 c3        1 MOL      0.370968
      9 C4         -2.8480    3.0140    1.6100 c         1 MOL      0.473076
     10 O2         -4.0110    3.3250    1.6460 o         1 MOL     -0.491263
     11 C5         -3.5040    0.7210    2.6400 c3        1 MOL     -0.392246
     12 C6         -4.2770    0.2070    1.4440 c         1 MOL      0.838752
     13 O3         -3.7560    0.4280    0.3000 o         1 MOL     -0.667530
     14 O4         -5.4050   -0.3650    1.6450 o         1 MOL     -0.667530
     15 H4         -2.2140    1.8190    4.3870 hn        1 MOL      0.317015
     16 H5         -1.5950    1.1790    1.6820 h1        1 MOL      0.028198
     17 H6         -4.1130    1.3310    3.3070 hc        1 MOL      0.079168
     18 H7         -3.1560   -0.1840    3.1340 hc        1 MOL      0.079168
     19 N2         -2.0020    3.8770    1.0380 n         1 MOL     -0.376480
     20 C7         -2.3010    5.2570    0.7570 c3        1 MOL     -0.022706
     21 C8         -3.2490    5.3460   -0.4630 c         1 MOL      0.496920
     22 O5         -3.6120    6.4800   -0.7960 o         1 MOL     -0.574274
     23 C9         -1.0270    6.0810    0.5110 c3        1 MOL     -0.203307
     24 C10         0.0500    6.0850    1.6890 c3        1 MOL     -0.042687
     25 C11        -0.3700    6.8330    3.0110 c3        1 MOL      0.017288
     26 C12         0.7760    7.5310    3.8380 c3        1 MOL     -0.057773
     27 N3          1.7350    6.5700    4.3070 n4        1 MOL     -0.302528
     28 H8         -1.0360    3.5850    0.9410 hn        1 MOL      0.347879
     29 H9         -2.8540    5.6800    1.5980 h1        1 MOL      0.072121
     30 H10        -1.2330    7.1340    0.3160 hc        1 MOL      0.098408
     31 H11        -0.6260    5.6470   -0.4120 hc        1 MOL      0.098408
     32 H12         0.9430    6.5470    1.2710 hc        1 MOL      0.033714
     33 H13         0.4020    5.0670    1.8640 hc        1 MOL      0.033714
     34 H14        -0.8660    6.1110    3.6540 hc        1 MOL      0.042283
     35 H15        -1.0340    7.6720    2.8120 hc        1 MOL      0.042283
     36 H16         0.2660    8.0090    4.6700 hx        1 MOL      0.097950
     37 H17         1.2870    8.2520    3.1850 hx        1 MOL      0.097950
     38 H18         2.5490    6.9690    4.7580 hn        1 MOL      0.318763
     39 H19         1.2710    5.9220    4.9340 hn        1 MOL      0.318763
     40 H20         2.1860    6.1180    3.5280 hn        1 MOL      0.318763
     41 N4         -3.5100    4.3070   -1.2220 n         1 MOL     -0.208771
     42 C13        -4.5510    4.2330   -2.2060 c3        1 MOL     -0.100761
     43 C14        -5.7790    3.3410   -1.8930 c         1 MOL      0.432178
     44 O6         -6.7610    3.4690   -2.6920 o         1 MOL     -0.518209
     45 C15        -3.8960    3.8940   -3.5320 c3        1 MOL     -0.031104
     46 C16        -3.0750    2.5900   -3.5690 c         1 MOL      0.699011
     47 O7         -2.3670    2.3210   -4.5260 o         1 MOL     -0.680977
     48 O8         -3.1000    1.7680   -2.5980 o         1 MOL     -0.680977
     49 H21        -3.0740    3.4400   -0.9520 hn        1 MOL      0.110766
     50 H22        -4.8880    5.2500   -2.3900 h1        1 MOL      0.111135
     51 H23        -3.3250    4.6990   -3.9910 hc        1 MOL      0.027910
     52 H24        -4.7110    3.8440   -4.2560 hc        1 MOL      0.027910
     53 N5         -5.8270    2.6260   -0.7800 n         1 MOL      0.022115
     54 C17        -7.0340    1.9410   -0.3600 c3        1 MOL     -0.270880
     55 C18        -7.2700    0.7640   -1.3030 c         1 MOL      0.561263
     56 O9         -7.9930    0.9380   -2.3280 o         1 MOL     -0.527506
     57 H25        -4.9430    2.5770   -0.2960 hn        1 MOL      0.037650
     58 H26        -7.8410    2.6720   -0.2780 h1        1 MOL      0.111975
     59 H27        -6.9730    1.5290    0.6470 h1        1 MOL      0.111975
     60 N6         -6.7210   -0.3880   -1.0470 n         1 MOL     -0.235728
     61 C19        -7.0770   -1.6740   -1.6990 c3        1 MOL     -0.031551
     62 C20        -7.0040   -2.8910   -0.7460 c         1 MOL      0.504767
     63 O10        -7.2150   -4.0080   -1.1480 o         1 MOL     -0.524590
     64 C21        -6.1090   -1.9680   -2.8880 c3        1 MOL     -0.061764
     65 C22        -4.6260   -1.7060   -2.5180 c         1 MOL      0.723203
     66 O11        -4.1140   -2.0570   -1.4650 o         1 MOL     -0.693073
     67 O12        -3.9230   -1.1370   -3.3490 o         1 MOL     -0.693073
     68 H28        -6.1140   -0.4210   -0.2430 hn        1 MOL     -0.015082
     69 H29        -8.0920   -1.5730   -2.0750 h1        1 MOL      0.080355
     70 H30        -6.4010   -1.2380   -3.6390 hc        1 MOL      0.033309
     71 H31        -6.2330   -2.9740   -3.2650 hc        1 MOL      0.033309
     72 N7         -6.7480   -2.6710    0.5380 n         1 MOL     -0.412657
     73 C23        -6.6590   -3.7790    1.5360 c3        1 MOL     -0.132543
     74 C24        -5.3160   -4.4980    1.5630 c         1 MOL      0.420236
     75 O13        -5.2540   -5.6120    2.1290 o         1 MOL     -0.548029
     76 H32        -6.6320   -1.7300    0.8630 hn        1 MOL      0.349871
     77 H33        -7.2440   -4.6290    1.1740 h1        1 MOL      0.121319
     78 H34        -6.9910   -3.4840    2.5310 h1        1 MOL      0.121319
     79 N8         -4.2540   -3.9480    0.9880 n         1 MOL     -0.072838
     80 C25        -2.9460   -4.5200    0.9300 c3        1 MOL     -0.321554
     81 C26        -1.7890   -3.5060    1.0710 c         1 MOL      0.730516
     82 O14        -1.8690   -2.3570    0.5250 o         1 MOL     -0.662316
     83 C27        -2.7680   -5.4350   -0.3670 c3        1 MOL      0.428546
     84 C28        -3.8550   -6.5250   -0.4070 c3        1 MOL     -0.470528
     85 O15        -3.1270   -4.6600   -1.4950 oh        1 MOL     -0.618169
     86 H35        -4.4170   -3.1020    0.4520 hn        1 MOL      0.132838
     87 H36        -2.8690   -5.1420    1.8310 h1        1 MOL      0.113120
     88 H37        -1.7960   -5.9310   -0.3810 h1        1 MOL      0.004457
     89 H38        -3.8490   -4.1000   -1.2040 ho        1 MOL      0.411927
     90 H39        -3.8160   -7.0580    0.5470 hc        1 MOL      0.126797
     91 H40        -4.8820   -6.2180   -0.6020 hc        1 MOL      0.126797
     92 H41        -3.7560   -7.2080   -1.2560 hc        1 MOL      0.126797
     93 N9         -0.7030   -3.9340    1.7560 n         1 MOL     -0.589615
     94 C29         0.5520   -3.1620    2.0480 c3        1 MOL     -0.064312
     95 C30         1.7160   -3.7380    1.2470 c         1 MOL      0.615338
     96 O16         2.2140   -4.8260    1.5330 o         1 MOL     -0.542237
     97 C31         0.8320   -3.0770    3.5810 c3        1 MOL      0.198744
     98 C32        -0.3160   -2.3750    4.2420 c3        1 MOL     -0.003500
     99 C33         2.1230   -2.3320    3.7670 c3        1 MOL     -0.397137
    100 C34        -0.2170   -2.4300    5.7910 c3        1 MOL     -0.171110
    101 H42        -0.6400   -4.8900    2.0850 hn        1 MOL      0.320061
    102 H43         0.4230   -2.1600    1.6170 h1        1 MOL      0.103609
    103 H44         0.9880   -4.0760    3.9690 hc        1 MOL      0.015125
    104 H45        -1.2540   -2.8220    3.9340 hc        1 MOL      0.040949
    105 H46        -0.4660   -1.3390    3.9360 hc        1 MOL      0.040949
    106 H47         1.9500   -1.2850    3.4780 hc        1 MOL      0.094023
    107 H48         2.4410   -2.2730    4.8110 hc        1 MOL      0.094023
    108 H49         2.9590   -2.8310    3.2640 hc        1 MOL      0.094023
    109 H50         0.7300   -1.9890    6.1010 hc        1 MOL      0.039395
    110 H51        -0.9920   -1.9410    6.3720 hc        1 MOL      0.039395
    111 H52        -0.1730   -3.4420    6.1820 hc        1 MOL      0.039395
    112 N10         2.1850   -3.0190    0.1810 n         1 MOL     -0.505929
    113 C35         3.3780   -3.3700   -0.6360 c3        1 MOL      0.073627
    114 C36         4.7280   -2.8790    0.0010 c         1 MOL      0.446607
    115 O17         4.8050   -2.0070    0.8490 o         1 MOL     -0.286794
    116 C37         3.2820   -2.7200   -2.0460 c3        1 MOL      0.296910
    117 C38         2.1390   -3.2530   -2.8570 c3        1 MOL     -0.376195
    118 O18         3.0660   -1.3330   -1.9570 oh        1 MOL     -0.644909
    119 H53         1.6260   -2.2820   -0.2150 hn        1 MOL      0.336737
    120 H54         3.5140   -4.4450   -0.7090 h1        1 MOL      0.051566
    121 H55         4.2480   -2.9280   -2.5230 h1        1 MOL     -0.006421
    122 H56         2.1250   -1.1490   -1.9160 ho        1 MOL      0.447935
    123 H57         1.8550   -2.5390   -3.6330 hc        1 MOL      0.106707
    124 H58         2.4340   -4.1710   -3.3770 hc        1 MOL      0.106707
    125 H59         1.3440   -3.5790   -2.1990 hc        1 MOL      0.106707
    126 N11         5.7930   -3.5320   -0.4020 n         1 MOL     -0.424564
    127 C39         7.1610   -3.1730    0.0490 c3        1 MOL     -0.170432
    128 C40         7.5710   -1.6790   -0.1160 c         1 MOL      0.489976
    129 O19         8.2340   -1.1950    0.8450 o         1 MOL     -0.473120
    130 C41         8.1570   -4.0180   -0.7650 c3        1 MOL      0.504536
    131 C42         9.5680   -3.9360   -0.2360 c3        1 MOL     -0.381960
    132 O20         7.9020   -5.4130   -0.9520 oh        1 MOL     -0.604048
    133 H60         5.7060   -4.0860   -1.2460 hn        1 MOL      0.221353
    134 H61         7.1550   -3.3750    1.1180 h1        1 MOL      0.147204
    135 H62         8.1780   -3.6360   -1.7810 h1        1 MOL     -0.072522
    136 H63         7.1090   -5.4830   -1.4880 ho        1 MOL      0.375568
    137 H64         9.7820   -2.8890   -0.0320 hc        1 MOL      0.107061
    138 H65         9.5370   -4.3570    0.7610 hc        1 MOL      0.107061
    139 H66        10.2820   -4.4600   -0.8700 hc        1 MOL      0.107061
    140 N12         7.1740   -1.0620   -1.2520 n         1 MOL     -0.463798
    141 C43         7.3010    0.3840   -1.3390 c3        1 MOL      0.007715
    142 C44         6.3910    1.0750   -0.4170 c         1 MOL      0.329840
    143 O21         6.9230    1.8690    0.3150 o         1 MOL     -0.465207
    144 C45         6.9960    0.8700   -2.7890 c3        1 MOL     -0.098020
    145 C46         7.4100    2.3580   -2.8880 c3        1 MOL     -0.080926
    146 C47         8.8590    2.6830   -3.3470 c3        1 MOL      0.021992
    147 C48         8.9520    4.0780   -4.0110 c3        1 MOL      0.041557
    148 N13        10.3170    4.5170   -4.2250 n4        1 MOL     -0.242485
    149 H67         6.7180   -1.6490   -1.9410 hn        1 MOL      0.301733
    150 H68         8.3060    0.7350   -1.1130 h1        1 MOL      0.105561
    151 H69         5.9770    0.6150   -3.0810 hc        1 MOL      0.065952
    152 H70         7.6200    0.3590   -3.5240 hc        1 MOL      0.065952
    153 H71         7.2040    3.0320   -2.0470 hc        1 MOL      0.047893
    154 H72         6.8010    2.7510   -3.7030 hc        1 MOL      0.047893
    155 H73         9.1820    1.9510   -4.0810 hc        1 MOL      0.019726
    156 H74         9.6020    2.6430   -2.5500 hc        1 MOL      0.019726
    157 H75         8.4420    4.8920   -3.4890 hx        1 MOL      0.076631
    158 H76         8.3340    4.0630   -4.9040 hx        1 MOL      0.076631
    159 H77        10.9100    4.4890   -3.4020 hn        1 MOL      0.254744
    160 H78        10.8110    3.9260   -4.8800 hn        1 MOL      0.254744
    161 H79        10.4070    5.4250   -4.6420 hn        1 MOL      0.254744
    162 N14         5.0760    0.7460   -0.2310 n         1 MOL     -0.078858
    163 C49         4.2190    1.6150    0.5970 c3        1 MOL     -0.243852
    164 C50         4.6250    1.5410    2.0820 c         1 MOL      0.351145
    165 O22         4.6680    2.5300    2.7610 o         1 MOL     -0.551449
    166 C51         2.7580    1.1210    0.5010 c3        1 MOL      0.125090
    167 C52         1.9580    1.7010   -0.6910 c3        1 MOL     -0.008037
    168 C53         0.6170    0.9830   -0.8020 c         1 MOL      0.709567
    169 O23         0.6680   -0.1890   -1.2450 o         1 MOL     -0.761556
    170 O24        -0.5170    1.5260   -0.5300 o         1 MOL     -0.761556
    171 H80         4.6740    0.0790   -0.8690 hn        1 MOL      0.198842
    172 H81         4.4100    2.6490    0.2850 h1        1 MOL      0.132860
    173 H82         2.1890    1.3970    1.3830 hc        1 MOL     -0.004559
    174 H83         2.8510    0.0380    0.6100 hc        1 MOL     -0.004559
    175 H84         2.5290    1.7410   -1.6220 hc        1 MOL     -0.017842
    176 H85         1.7290    2.7480   -0.4920 hc        1 MOL     -0.017842
    177 N15         5.1420    0.3920    2.5060 n         1 MOL      0.138152
    178 C54         5.8090    0.1100    3.7810 c3        1 MOL     -0.290733
    179 H86         6.0750   -0.9460    3.8270 h1        1 MOL      0.102606
    180 H87         6.7120    0.7150    3.8600 h1        1 MOL      0.102606
    181 H88         5.1360    0.3510    4.6050 h1        1 MOL      0.102606
    182 H89         5.0080   -0.4140    1.9100 hn        1 MOL     -0.043465
    183 Ca1        -2.1340   -0.3610   -1.4600 Ca        1 MOL      1.758322
    184 O25        -1.0990   -2.6790   -2.2600 oh        1 MOL     -0.843051
    185 H90        -0.7190   -3.0750   -3.0480 ho        1 MOL      0.396378
    186 H91        -1.6980   -3.3430   -1.9250 ho        1 MOL      0.396378
    187 O26        -1.2400    0.0180   -3.9400 oh        1 MOL     -0.843051
    188 H92        -0.5860    0.2760   -4.5860 ho        1 MOL      0.396378
    189 H93        -1.9090    0.6950   -3.9970 ho        1 MOL      0.396378
@<TRIPOS>BOND
     1    1    2 1   
     2    1    4 1   
     3    1    5 1   
     4    1    6 1   
     5    2    3 2   
     6    2    7 1   
     7    7    8 1   
     8    7   15 1   
     9    8    9 1   
    10    8   11 1   
    11    8   16 1   
    12    9   10 2   
    13    9   19 1   
    14   11   12 1   
    15   11   17 1   
    16   11   18 1   
    17   12   13 1   
    18   12   14 1   
    19   19   20 1   
    20   19   28 1   
    21   20   21 1   
    22   20   23 1   
    23   20   29 1   
    24   21   22 2   
    25   21   41 1   
    26   23   24 1   
    27   23   30 1   
    28   23   31 1   
    29   24   25 1   
    30   24   32 1   
    31   24   33 1   
    32   25   26 1   
    33   25   34 1   
    34   25   35 1   
    35   26   27 1   
    36   26   36 1   
    37   26   37 1   
    38   27   38 1   
    39   27   39 1   
    40   27   40 1   
    41   41   42 1   
    42   41   49 1   
    43   42   43 1   
    44   42   45 1   
    45   42   50 1   
    46   43   44 2   
    47   43   53 1   
    48   45   46 1   
    49   45   51 1   
    50   45   52 1   
    51   46   47 1   
    52   46   48 1   
    53   53   54 1   
    54   53   57 1   
    55   54   55 1   
    56   54   58 1   
    57   54   59 1   
    58   55   56 2   
    59   55   60 1   
    60   60   61 1   
    61   60   68 1   
    62   61   62 1   
    63   61   64 1   
    64   61   69 1   
    65   62   63 2   
    66   62   72 1   
    67   64   65 1   
    68   64   70 1   
    69   64   71 1   
    70   65   66 1   
    71   65   67 1   
    72   72   73 1   
    73   72   76 1   
    74   73   74 1   
    75   73   77 1   
    76   73   78 1   
    77   74   75 2   
    78   74   79 1   
    79   79   80 1   
    80   79   86 1   
    81   80   81 1   
    82   80   83 1   
    83   80   87 1   
    84   81   82 2   
    85   81   93 1   
    86   83   84 1   
    87   83   85 1   
    88   83   88 1   
    89   84   90 1   
    90   84   91 1   
    91   84   92 1   
    92   85   89 1   
    93   93   94 1   
    94   93  101 1   
    95   94   95 1   
    96   94   97 1   
    97   94  102 1   
    98   95   96 2   
    99   95  112 1   
   100   97   98 1   
   101   97   99 1   
   102   97  103 1   
   103   98  100 1   
   104   98  104 1   
   105   98  105 1   
   106   99  106 1   
   107   99  107 1   
   108   99  108 1   
   109  100  109 1   
   110  100  110 1   
   111  100  111 1   
   112  112  113 1   
   113  112  119 1   
   114  113  114 1   
   115  113  116 1   
   116  113  120 1   
   117  114  115 2   
   118  114  126 1   
   119  116  117 1   
   120  116  118 1   
   121  116  121 1   
   122  117  123 1   
   123  117  124 1   
   124  117  125 1   
   125  118  122 1   
   126  126  127 1   
   127  126  133 1   
   128  127  128 1   
   129  127  130 1   
   130  127  134 1   
   131  128  129 2   
   132  128  140 1   
   133  130  131 1   
   134  130  132 1   
   135  130  135 1   
   136  131  137 1   
   137  131  138 1   
   138  131  139 1   
   139  132  136 1   
   140  140  141 1   
   141  140  149 1   
   142  141  142 1   
   143  141  144 1   
   144  141  150 1   
   145  142  143 2   
   146  142  162 1   
   147  144  145 1   
   148  144  151 1   
   149  144  152 1   
   150  145  146 1   
   151  145  153 1   
   152  145  154 1   
   153  146  147 1   
   154  146  155 1   
   155  146  156 1   
   156  147  148 1   
   157  147  157 1   
   158  147  158 1   
   159  148  159 1   
   160  148  160 1   
   161  148  161 1   
   162  162  163 1   
   163  162  171 1   
   164  163  164 1   
   165  163  166 1   
   166  163  172 1   
   167  164  165 2   
   168  164  177 1   
   169  166  167 1   
   170  166  173 1   
   171  166  174 1   
   172  167  168 1   
   173  167  175 1   
   174  167  176 1   
   175  168  169 1   
   176  168  170 1   
   177  177  178 1   
   178  177  182 1   
   179  178  179 1   
   180  178  180 1   
   181  178  181 1   
   182  184  185 1   
   183  184  186 1   
   184  187  188 1   
   185  187  189 1   
@<TRIPOS>SUBSTRUCTURE
     1 MOL         1 TEMP              0 ****  ****    0 ROOT
