@<TRIPOS>MOLECULE
MOL
  179   176     1     0     0
SMALL
resp


@<TRIPOS>ATOM
      1 C1         -0.4180   -4.6650    5.8730 c3        1 MOL     -0.290300
      2 C2         -0.4150   -3.7610    4.6250 c         1 MOL      0.680699
      3 O1         -1.4740   -3.4700    4.0160 o         1 MOL     -0.566699
      4 H1          0.1780   -5.5570    5.6760 hc        1 MOL      0.080640
      5 H2          0.0100   -4.1220    6.7160 hc        1 MOL      0.080640
      6 H3         -1.4410   -4.9560    6.1090 hc        1 MOL      0.080640
      7 N1          0.8260   -3.4150    4.1350 n         1 MOL     -0.585541
      8 C3          1.2470   -2.6810    2.9040 c3        1 MOL      0.044812
      9 C4          1.5610   -3.7730    1.8380 c         1 MOL      0.642561
     10 O2          2.2100   -4.8010    2.1430 o         1 MOL     -0.570686
     11 C5          2.4870   -1.8160    3.2060 c3        1 MOL     -0.281346
     12 C6          3.0150   -0.9070    2.0030 c         1 MOL      0.669966
     13 O3          3.9630   -0.1030    2.1600 o         1 MOL     -0.713147
     14 O4          2.5740   -1.1600    0.8490 o         1 MOL     -0.713147
     15 H4          1.6130   -3.7960    4.6290 hn        1 MOL      0.304919
     16 H5          0.4080   -2.0740    2.5790 h1        1 MOL      0.050914
     17 H6          3.3220   -2.4500    3.4800 hc        1 MOL      0.099865
     18 H7          2.2210   -1.1580    4.0330 hc        1 MOL      0.099865
     19 N2          0.9410   -3.7270    0.6090 n         1 MOL     -0.341621
     20 C7          0.9310   -4.8310   -0.3920 c3        1 MOL     -0.140315
     21 C8          2.3030   -5.0900   -0.9340 c         1 MOL      0.584920
     22 O5          2.5400   -6.1240   -1.4820 o         1 MOL     -0.556653
     23 C9         -0.0900   -4.4500   -1.5620 c3        1 MOL     -0.122254
     24 C10         0.4450   -3.6500   -2.7880 c3        1 MOL      0.009265
     25 C11        -0.6760   -3.7290   -3.8550 c3        1 MOL     -0.216831
     26 C12        -0.9140   -2.4840   -4.7890 c3        1 MOL      0.106327
     27 N3         -1.8820   -2.7380   -5.8880 n4        1 MOL     -0.355735
     28 H8          0.4070   -2.8920    0.3870 hn        1 MOL      0.245880
     29 H9          0.5600   -5.7220    0.1160 h1        1 MOL      0.131854
     30 H10        -0.9630   -4.0030   -1.0760 hc        1 MOL      0.076548
     31 H11        -0.3990   -5.3830   -2.0420 hc        1 MOL      0.076548
     32 H12         1.3090   -4.1680   -3.2060 hc        1 MOL      0.047853
     33 H13         0.6560   -2.6420   -2.4520 hc        1 MOL      0.047853
     34 H14        -1.5580   -3.9620   -3.2700 hc        1 MOL      0.084421
     35 H15        -0.3790   -4.6120   -4.4310 hc        1 MOL      0.084421
     36 H16         0.0220   -2.2640   -5.2970 hx        1 MOL      0.061193
     37 H17        -1.1210   -1.5720   -4.2210 hx        1 MOL      0.061193
     38 H18        -1.4800   -3.3580   -6.5720 hn        1 MOL      0.319881
     39 H19        -2.8060   -3.0670   -5.6650 hn        1 MOL      0.319881
     40 H20        -2.0110   -1.8970   -6.4300 hn        1 MOL      0.319881
     41 N4          3.2100   -4.0760   -0.8890 n         1 MOL     -0.304034
     42 C13         4.5570   -4.0610   -1.5170 c3        1 MOL     -0.045642
     43 C14         5.7010   -3.5680   -0.6750 c         1 MOL      0.435798
     44 O6          6.8470   -3.9750   -0.9410 o         1 MOL     -0.551781
     45 C15         4.4960   -3.3850   -2.8670 c3        1 MOL     -0.052694
     46 C16         4.0210   -1.9440   -2.8890 c         1 MOL      0.669769
     47 O7          3.7160   -1.3440   -1.8490 o         1 MOL     -0.720400
     48 O8          4.1930   -1.3080   -3.9850 o         1 MOL     -0.720400
     49 H21         2.9800   -3.2610   -0.3420 hn        1 MOL      0.137769
     50 H22         4.8330   -5.0950   -1.7290 h1        1 MOL      0.108759
     51 H23         3.7640   -3.8670   -3.5190 hc        1 MOL      0.031117
     52 H24         5.4650   -3.4490   -3.3690 hc        1 MOL      0.031117
     53 N5          5.3980   -2.9100    0.3810 n         1 MOL     -0.100225
     54 C17         6.3220   -2.3450    1.3350 c3        1 MOL     -0.234860
     55 C18         6.8230   -0.9330    0.8720 c         1 MOL      0.548356
     56 O9          7.8000   -0.4360    1.5400 o         1 MOL     -0.561035
     57 H25         4.4270   -2.7020    0.5460 hn        1 MOL      0.138416
     58 H26         7.1630   -3.0280    1.4850 h1        1 MOL      0.131686
     59 H27         5.7880   -2.1590    2.2600 h1        1 MOL      0.131686
     60 N6          6.1330   -0.2080   -0.0940 n         1 MOL     -0.384306
     61 C19         6.6450    1.0500   -0.6810 c3        1 MOL      0.007141
     62 C20         6.5850    2.2390    0.4430 c         1 MOL      0.406578
     63 O10         7.1860    3.2630    0.1630 o         1 MOL     -0.531166
     64 C21         5.9650    1.4060   -2.0070 c3        1 MOL     -0.276293
     65 C22         4.6390    2.1030   -1.8190 c         1 MOL      0.657294
     66 N7          4.3870    3.1750   -2.5380 n         1 MOL     -0.745418
     67 O11         3.7790    1.6290   -1.0820 o         1 MOL     -0.744622
     68 H28         5.2210   -0.5000   -0.3860 hn        1 MOL      0.333747
     69 H29         7.6950    0.7920   -0.8300 h1        1 MOL      0.116871
     70 H30         5.5880    0.5110   -2.4980 hc        1 MOL      0.124714
     71 H31         6.5710    2.0260   -2.6660 hc        1 MOL      0.124714
     72 H32         5.0290    3.5680   -3.2090 hn        1 MOL      0.375738
     73 H33         3.5490    3.6330   -2.2110 hn        1 MOL      0.375738
     74 N8          5.8910    2.0690    1.5960 n         1 MOL     -0.124770
     75 C23         5.7130    3.0440    2.6840 c3        1 MOL     -0.329617
     76 C24         4.3920    3.6730    2.7420 c         1 MOL      0.642460
     77 O12         4.2970    4.6090    3.5430 o         1 MOL     -0.562717
     78 H34         5.5530    1.1400    1.8230 hn        1 MOL      0.272865
     79 H35         6.4690    3.7940    2.4720 h1        1 MOL      0.146110
     80 H36         5.9300    2.5340    3.6310 h1        1 MOL      0.146110
     81 N9          3.3690    3.2900    1.8940 n         1 MOL     -0.371741
     82 C25         1.9810    3.7620    2.2320 c3        1 MOL     -0.065235
     83 C26         0.9440    2.7290    1.7860 c         1 MOL      0.683760
     84 O13         1.2170    1.8440    0.9560 o         1 MOL     -0.604095
     85 C27         1.6090    5.0850    1.5250 c3        1 MOL     -0.077015
     86 C28         1.5700    5.1510   -0.0290 ca        1 MOL     -0.024202
     87 C29         0.2800    5.0810   -0.6830 ca        1 MOL     -0.080899
     88 C30         2.7300    5.5840   -0.7080 ca        1 MOL     -0.080899
     89 C31         0.2120    5.5120   -2.0470 ca        1 MOL     -0.294437
     90 C32         2.6350    5.9220   -2.0690 ca        1 MOL     -0.294437
     91 C33         1.4070    5.8800   -2.7220 ca        1 MOL      0.391746
     92 O14         1.2990    6.2320   -4.0200 oh        1 MOL     -0.566821
     93 H37         3.4660    2.4670    1.3210 hn        1 MOL      0.269381
     94 H38         1.8630    3.8430    3.3130 h1        1 MOL      0.090594
     95 H39         2.2390    5.9130    1.8420 hc        1 MOL      0.065143
     96 H40         0.6470    5.4290    1.9120 hc        1 MOL      0.065143
     97 H41        -0.5870    4.8430   -0.0820 ha        1 MOL      0.150921
     98 H42         3.6570    5.6460   -0.1510 ha        1 MOL      0.150921
     99 H43        -0.7140    5.4690   -2.5980 ha        1 MOL      0.138163
    100 H44         3.5330    6.0390   -2.6490 ha        1 MOL      0.138163
    101 H45         0.4800    6.2530   -4.5210 ho        1 MOL      0.404148
    102 N10        -0.3440    3.0490    2.0920 n         1 MOL     -0.616749
    103 C34        -1.5840    2.3200    1.6340 c3        1 MOL     -0.045648
    104 C35        -2.7670    3.2830    1.2470 c         1 MOL      0.461462
    105 O15        -2.6740    4.5090    1.4550 o         1 MOL     -0.524692
    106 C36        -2.0400    1.2660    2.6750 c3        1 MOL      0.038881
    107 C37        -2.4560    1.8440    4.0030 c3        1 MOL      0.175818
    108 C38        -1.0770    0.1510    2.9010 c3        1 MOL     -0.033068
    109 C39        -3.4160    0.9620    4.8480 c3        1 MOL     -0.319463
    110 H46        -0.4830    3.8250    2.7300 hn        1 MOL      0.340941
    111 H47        -1.3620    1.6970    0.7660 h1        1 MOL      0.142874
    112 H48        -2.9460    0.7760    2.3130 hc        1 MOL     -0.159603
    113 H49        -3.0970    2.6630    3.6680 hc        1 MOL     -0.024033
    114 H50        -1.6810    2.2610    4.6560 hc        1 MOL     -0.024033
    115 H51        -0.2730    0.4990    3.5360 hc        1 MOL      0.033756
    116 H52        -1.5750   -0.7030    3.3720 hc        1 MOL      0.033756
    117 H53        -0.6570   -0.2220    1.9570 hc        1 MOL      0.033756
    118 H54        -4.3380    0.9150    4.2720 hc        1 MOL      0.084785
    119 H55        -2.7900    0.0730    4.9510 hc        1 MOL      0.084785
    120 H56        -3.6600    1.4780    5.7680 hc        1 MOL      0.084785
    121 N11        -3.8280    2.6920    0.6330 n         1 MOL     -0.082999
    122 C40        -5.1590    3.2410    0.2260 c3        1 MOL     -0.055372
    123 C41        -6.2700    2.1860    0.4050 c         1 MOL      0.440390
    124 O16        -5.9150    1.0420    0.6910 o         1 MOL     -0.421543
    125 C42        -5.1090    3.7330   -1.1890 c3        1 MOL      0.035114
    126 O17        -4.6850    2.7640   -2.1550 oh        1 MOL     -0.584022
    127 H57        -3.5470    1.8090    0.2470 hn        1 MOL      0.132051
    128 H58        -5.5180    4.0970    0.8020 h1        1 MOL      0.083505
    129 H59        -4.3480    4.5050   -1.0700 h1        1 MOL      0.065520
    130 H60        -6.0670    4.1900   -1.4770 h1        1 MOL      0.065520
    131 H61        -5.4420    2.3620   -2.6020 ho        1 MOL      0.396995
    132 N12        -7.5180    2.5340    0.1850 n         1 MOL     -0.421669
    133 C43        -8.6230    1.6150    0.4340 c3        1 MOL      0.149173
    134 C44        -8.5740    0.1970   -0.2310 c         1 MOL      0.464484
    135 O18        -8.7070   -0.7990    0.4660 o         1 MOL     -0.456623
    136 C45        -9.8600    2.3910    0.0540 c3        1 MOL     -0.452807
    137 H62        -7.6930    3.4140   -0.2650 hn        1 MOL      0.295529
    138 H63        -8.5800    1.3640    1.4890 h1        1 MOL      0.098692
    139 H64       -10.7020    1.7580   -0.2170 hc        1 MOL      0.133401
    140 H65       -10.2100    2.9330    0.9380 hc        1 MOL      0.133401
    141 H66        -9.6240    2.9880   -0.8350 hc        1 MOL      0.133401
    142 N13        -8.1430    0.1260   -1.5580 n         1 MOL     -0.426824
    143 C46        -7.7790   -1.1480   -2.2350 c3        1 MOL      0.021735
    144 C47        -6.7680   -2.0400   -1.4710 c         1 MOL      0.443358
    145 O19        -7.1110   -3.2240   -1.2190 o         1 MOL     -0.508448
    146 C48        -7.3200   -0.7680   -3.6570 c3        1 MOL     -0.303473
    147 H67        -7.9070    0.9930   -2.0310 hn        1 MOL      0.257153
    148 H68        -8.7590   -1.6180   -2.3190 h1        1 MOL      0.131361
    149 H69        -6.4250   -0.1650   -3.7380 hc        1 MOL      0.085050
    150 H70        -7.1910   -1.7020   -4.2070 hc        1 MOL      0.085050
    151 H71        -8.0570   -0.1660   -4.1670 hc        1 MOL      0.085050
    152 N14        -5.6740   -1.5440   -0.9700 n         1 MOL     -0.174662
    153 C49        -4.6280   -2.2710   -0.2440 c3        1 MOL     -0.247426
    154 C50        -5.0370   -2.7330    1.1270 c         1 MOL      0.582254
    155 O20        -4.7250   -3.8820    1.5120 o         1 MOL     -0.515382
    156 C51        -3.3410   -1.4170   -0.1010 c3        1 MOL      0.047847
    157 C52        -2.4430   -1.4140   -1.3230 c3        1 MOL     -0.078966
    158 C53        -1.1090   -0.7750   -1.0830 c         1 MOL      0.819708
    159 O21        -0.9350    0.4090   -1.3800 o         1 MOL     -0.770403
    160 O22        -0.2050   -1.3910   -0.5090 o         1 MOL     -0.770403
    161 H72        -5.5000   -0.5570   -1.0410 hn        1 MOL      0.189391
    162 H73        -4.2850   -3.1220   -0.8360 h1        1 MOL      0.114548
    163 H74        -2.7570   -1.8970    0.6760 hc        1 MOL      0.082188
    164 H75        -3.6540   -0.3850    0.0890 hc        1 MOL      0.082188
    165 H76        -2.9120   -0.8990   -2.1690 hc        1 MOL     -0.036967
    166 H77        -2.2690   -2.4660   -1.5300 hc        1 MOL     -0.036967
    167 N15        -5.7620   -1.8470    1.8800 n         1 MOL     -0.228871
    168 C54        -6.4910   -2.2200    3.1700 c3        1 MOL     -0.270449
    169 H78        -5.7950   -2.7080    3.8530 h1        1 MOL      0.120517
    170 H79        -6.8860   -1.3180    3.6390 h1        1 MOL      0.120517
    171 H80        -7.3110   -2.9010    2.9420 h1        1 MOL      0.120517
    172 H81        -5.9760   -0.9590    1.4440 hn        1 MOL      0.188413
    173 Ca1         1.7060    0.2270   -0.9860 Ca        1 MOL      1.795484
    174 O23         1.3200    2.3680   -2.5480 oh        1 MOL     -0.766820
    175 H82         0.4220    2.6370   -2.6920 ho        1 MOL      0.364514
    176 H83         1.7970    2.6440   -3.3320 ho        1 MOL      0.364514
    177 O24         1.2250   -0.3080   -3.5990 oh        1 MOL     -0.766820
    178 H84         1.9960   -0.5230   -4.1170 ho        1 MOL      0.364514
    179 H85         0.7630    0.3470   -4.1240 ho        1 MOL      0.364514
@<TRIPOS>BOND
     1    1    2 1   
     2    1    4 1   
     3    1    5 1   
     4    1    6 1   
     5    2    3 2   
     6    2    7 1   
     7    7    8 1   
     8    7   15 1   
     9    8    9 1   
    10    8   11 1   
    11    8   16 1   
    12    9   10 2   
    13    9   19 1   
    14   11   12 1   
    15   11   17 1   
    16   11   18 1   
    17   12   13 1   
    18   12   14 1   
    19   19   20 1   
    20   19   28 1   
    21   20   21 1   
    22   20   23 1   
    23   20   29 1   
    24   21   22 2   
    25   21   41 1   
    26   23   24 1   
    27   23   30 1   
    28   23   31 1   
    29   24   25 1   
    30   24   32 1   
    31   24   33 1   
    32   25   26 1   
    33   25   34 1   
    34   25   35 1   
    35   26   27 1   
    36   26   36 1   
    37   26   37 1   
    38   27   38 1   
    39   27   39 1   
    40   27   40 1   
    41   41   42 1   
    42   41   49 1   
    43   42   43 1   
    44   42   45 1   
    45   42   50 1   
    46   43   44 2   
    47   43   53 1   
    48   45   46 1   
    49   45   51 1   
    50   45   52 1   
    51   46   47 1   
    52   46   48 1   
    53   53   54 1   
    54   53   57 1   
    55   54   55 1   
    56   54   58 1   
    57   54   59 1   
    58   55   56 2   
    59   55   60 1   
    60   60   61 1   
    61   60   68 1   
    62   61   62 1   
    63   61   64 1   
    64   61   69 1   
    65   62   63 2   
    66   62   74 1   
    67   64   65 1   
    68   64   70 1   
    69   64   71 1   
    70   65   66 1   
    71   65   67 2   
    72   66   72 1   
    73   66   73 1   
    74   74   75 1   
    75   74   78 1   
    76   75   76 1   
    77   75   79 1   
    78   75   80 1   
    79   76   77 2   
    80   76   81 1   
    81   81   82 1   
    82   81   93 1   
    83   82   83 1   
    84   82   85 1   
    85   82   94 1   
    86   83   84 2   
    87   83  102 1   
    88   85   86 1   
    89   85   95 1   
    90   85   96 1   
    91   86   87 ar  
    92   86   88 ar  
    93   87   89 ar  
    94   87   97 1   
    95   88   90 ar  
    96   88   98 1   
    97   89   91 ar  
    98   89   99 1   
    99   90   91 ar  
   100   90  100 1   
   101   91   92 1   
   102   92  101 1   
   103  102  103 1   
   104  102  110 1   
   105  103  104 1   
   106  103  106 1   
   107  103  111 1   
   108  104  105 2   
   109  104  121 1   
   110  106  107 1   
   111  106  108 1   
   112  106  112 1   
   113  107  109 1   
   114  107  113 1   
   115  107  114 1   
   116  108  115 1   
   117  108  116 1   
   118  108  117 1   
   119  109  118 1   
   120  109  119 1   
   121  109  120 1   
   122  121  122 1   
   123  121  127 1   
   124  122  123 1   
   125  122  125 1   
   126  122  128 1   
   127  123  124 2   
   128  123  132 1   
   129  125  126 1   
   130  125  129 1   
   131  125  130 1   
   132  126  131 1   
   133  132  133 1   
   134  132  137 1   
   135  133  134 1   
   136  133  136 1   
   137  133  138 1   
   138  134  135 2   
   139  134  142 1   
   140  136  139 1   
   141  136  140 1   
   142  136  141 1   
   143  142  143 1   
   144  142  147 1   
   145  143  144 1   
   146  143  146 1   
   147  143  148 1   
   148  144  145 2   
   149  144  152 1   
   150  146  149 1   
   151  146  150 1   
   152  146  151 1   
   153  152  153 1   
   154  152  161 1   
   155  153  154 1   
   156  153  156 1   
   157  153  162 1   
   158  154  155 2   
   159  154  167 1   
   160  156  157 1   
   161  156  163 1   
   162  156  164 1   
   163  157  158 1   
   164  157  165 1   
   165  157  166 1   
   166  158  159 1   
   167  158  160 1   
   168  167  168 1   
   169  167  172 1   
   170  168  169 1   
   171  168  170 1   
   172  168  171 1   
   173  174  175 1   
   174  174  176 1   
   175  177  178 1   
   176  177  179 1   
@<TRIPOS>SUBSTRUCTURE
     1 MOL         1 TEMP              0 ****  ****    0 ROOT
