@<TRIPOS>MOLECULE
MOL
  175   173     1     0     0
SMALL
resp


@<TRIPOS>ATOM
      1 C1          0.6350    4.6110    4.9100 c3        1 MOL     -0.410830
      2 C2         -0.1760    4.4920    3.6820 c         1 MOL      0.730042
      3 O1          0.2800    4.8320    2.6000 o         1 MOL     -0.572111
      4 H1          0.8260    5.6630    5.1190 hc        1 MOL      0.099888
      5 H2          0.0950    4.1670    5.7460 hc        1 MOL      0.099888
      6 H3          1.5830    4.0920    4.7720 hc        1 MOL      0.099888
      7 N1         -1.4300    4.1070    3.7070 n         1 MOL     -0.561360
      8 C3         -2.1940    3.6940    2.4970 c3        1 MOL      0.229457
      9 C4         -2.7360    4.8230    1.5590 c         1 MOL      0.523381
     10 O2         -3.2470    5.8590    2.0820 o         1 MOL     -0.581990
     11 C5         -3.3690    2.8390    2.9560 c3        1 MOL     -0.548280
     12 C6         -4.2370    2.2270    1.8930 c         1 MOL      0.909873
     13 O3         -5.3220    1.7150    2.2230 o         1 MOL     -0.704896
     14 O4         -3.8140    1.9870    0.7340 o         1 MOL     -0.704896
     15 H4         -1.9030    3.9350    4.5810 hn        1 MOL      0.305629
     16 H5         -1.5550    3.0250    1.9180 h1        1 MOL      0.046636
     17 H6         -4.0410    3.4650    3.5320 hc        1 MOL      0.104520
     18 H7         -2.9980    2.0650    3.6370 hc        1 MOL      0.104520
     19 N2         -2.6040    4.6380    0.2380 n         1 MOL     -0.526338
     20 C7         -3.1740    5.5460   -0.7320 c3        1 MOL      0.486204
     21 C8         -4.2780    4.9840   -1.6540 c         1 MOL      0.350615
     22 O5         -4.5450    5.6970   -2.6000 o         1 MOL     -0.535229
     23 C9         -1.9130    6.0480   -1.5270 c3        1 MOL     -0.253309
     24 H8         -2.1260    3.7980   -0.0630 hn        1 MOL      0.300678
     25 H9         -3.5330    6.4620   -0.2540 h1        1 MOL     -0.024175
     26 H10        -1.5950    5.2770   -2.2130 hc        1 MOL      0.057504
     27 H11        -2.1610    6.9840   -2.0370 hc        1 MOL      0.057504
     28 H12        -1.1140    6.2500   -0.8170 hc        1 MOL      0.057504
     29 N3         -4.8200    3.7420   -1.4740 n         1 MOL     -0.469031
     30 C10        -5.4830    3.0030   -2.5920 c3        1 MOL      0.226864
     31 C11        -6.5590    2.0360   -2.1450 c         1 MOL      0.259776
     32 O6         -7.3750    1.6050   -2.9920 o         1 MOL     -0.514009
     33 C12        -4.4150    2.1820   -3.3810 c3        1 MOL     -0.143558
     34 C13        -3.5670    1.2900   -2.5990 c         1 MOL      0.761021
     35 O7         -2.3100    1.2720   -2.7940 o         1 MOL     -0.718844
     36 O8         -4.1200    0.5310   -1.7600 o         1 MOL     -0.718844
     37 H13        -4.5410    3.1860   -0.6730 hn        1 MOL      0.233174
     38 H14        -5.9750    3.6200   -3.3540 h1        1 MOL      0.057339
     39 H15        -3.7610    2.8830   -3.8960 hc        1 MOL      0.028968
     40 H16        -4.8550    1.6520   -4.2230 hc        1 MOL      0.028968
     41 N4         -6.6460    1.6860   -0.8270 n         1 MOL     -0.079184
     42 C14        -7.5560    0.6900   -0.3090 c3        1 MOL     -0.291818
     43 C15        -7.6540   -0.7100   -1.0230 c         1 MOL      0.509532
     44 O9         -8.7010   -1.3490   -1.0970 o         1 MOL     -0.580704
     45 H17        -5.9590    2.1130   -0.2200 hn        1 MOL      0.121865
     46 H18        -8.5160    1.2010   -0.3010 h1        1 MOL      0.118907
     47 H19        -7.1660    0.5560    0.7060 h1        1 MOL      0.118907
     48 N5         -6.5090   -1.1650   -1.5580 n         1 MOL     -0.195881
     49 C16        -6.2810   -2.5310   -2.0530 c3        1 MOL     -0.087140
     50 C17        -6.2030   -3.6180   -0.9560 c         1 MOL      0.558381
     51 O10        -6.1170   -4.7660   -1.2920 o         1 MOL     -0.571096
     52 C18        -5.0660   -2.6600   -3.0000 c3        1 MOL     -0.085143
     53 C19        -3.7150   -2.3550   -2.3400 c         1 MOL      0.453974
     54 N6         -2.7140   -2.2080   -3.1850 n         1 MOL     -0.627821
     55 O11        -3.5490   -2.2990   -1.1310 o         1 MOL     -0.371914
     56 H20        -5.6980   -0.5870   -1.3810 hn        1 MOL      0.218736
     57 H21        -7.1130   -2.8730   -2.6770 h1        1 MOL      0.098929
     58 H22        -5.1440   -2.0420   -3.8940 hc        1 MOL      0.041962
     59 H23        -5.0370   -3.6990   -3.3430 hc        1 MOL      0.041962
     60 H24        -2.8680   -2.3490   -4.1710 hn        1 MOL      0.327298
     61 H25        -1.7670   -2.1870   -2.8450 hn        1 MOL      0.327298
     62 N7         -6.0860   -3.1710    0.2730 n         1 MOL     -0.310334
     63 C20        -5.9500   -4.0330    1.4890 c3        1 MOL     -0.250937
     64 C21        -4.5420   -4.4810    1.9660 c         1 MOL      0.513877
     65 O12        -4.5490   -5.1120    3.0280 o         1 MOL     -0.574975
     66 H26        -5.8800   -2.2040    0.4810 hn        1 MOL      0.216036
     67 H27        -6.5960   -4.9070    1.4220 h1        1 MOL      0.122226
     68 H28        -6.3680   -3.4410    2.3100 h1        1 MOL      0.122226
     69 N8         -3.4550   -4.1580    1.2600 n         1 MOL     -0.070329
     70 C22        -2.0760   -4.6300    1.5520 c3        1 MOL     -0.475406
     71 C23        -1.0860   -3.4550    1.7230 c         1 MOL      0.788808
     72 O13        -1.1770   -2.4640    0.9350 o         1 MOL     -0.843225
     73 C24        -1.6430   -5.5000    0.3870 c3        1 MOL      0.687794
     74 C25        -2.5980   -6.6410    0.0560 c3        1 MOL     -0.574667
     75 O14        -1.3930   -4.7120   -0.7310 oh        1 MOL     -0.628971
     76 H29        -3.6240   -3.7740    0.3410 hn        1 MOL      0.174499
     77 H30        -2.0750   -5.1610    2.5060 h1        1 MOL      0.126477
     78 H31        -0.6580   -5.9170    0.6190 h1        1 MOL     -0.087160
     79 H32        -0.9540   -3.9120   -0.4190 ho        1 MOL      0.404338
     80 H33        -1.9640   -7.3300   -0.5090 hc        1 MOL      0.145289
     81 H34        -2.8730   -7.0530    1.0250 hc        1 MOL      0.145289
     82 H35        -3.4760   -6.3430   -0.5150 hc        1 MOL      0.145289
     83 N9         -0.0010   -3.5720    2.5380 n         1 MOL     -0.550308
     84 C26         1.1600   -2.6440    2.2950 c3        1 MOL      0.097545
     85 C27         1.8500   -2.8650    0.9390 c         1 MOL      0.450678
     86 O15         2.1770   -3.9950    0.5270 o         1 MOL     -0.596874
     87 C28         2.2720   -2.7580    3.4270 c3        1 MOL     -0.000732
     88 C29         1.5460   -2.2530    4.7370 c3        1 MOL      0.081265
     89 C30         3.5530   -1.9780    3.2610 c3        1 MOL     -0.107477
     90 C31         2.2360   -2.6920    6.0340 c3        1 MOL     -0.061244
     91 H36         0.2590   -4.4580    2.9540 hn        1 MOL      0.306604
     92 H37         0.7830   -1.6220    2.2570 h1        1 MOL      0.052675
     93 H38         2.4940   -3.8210    3.4970 hc        1 MOL      0.018748
     94 H39         0.4880   -2.5230    4.8220 hc        1 MOL     -0.013558
     95 H40         1.5470   -1.1600    4.7290 hc        1 MOL     -0.013558
     96 H41         3.4090   -0.9010    3.1320 hc        1 MOL      0.022162
     97 H42         4.2620   -2.1500    4.0690 hc        1 MOL      0.022162
     98 H43         4.0360   -2.3220    2.3410 hc        1 MOL      0.022162
     99 H44         2.1100   -3.7570    6.2470 hc        1 MOL      0.003851
    100 H45         3.2910   -2.4290    6.0640 hc        1 MOL      0.003851
    101 H46         1.7340   -2.2240    6.8830 hc        1 MOL      0.003851
    102 N10         1.9890   -1.7780    0.2540 n         1 MOL      0.025941
    103 C32         2.7190   -1.7340   -1.0080 c3        1 MOL      0.008391
    104 C33         4.2230   -1.3100   -0.8110 c         1 MOL      0.404459
    105 O16         4.5000   -0.5040    0.0950 o         1 MOL     -0.339820
    106 C34         1.9780   -0.8810   -2.0200 c3        1 MOL     -0.205890
    107 C35         0.6200   -1.5210   -2.4370 c         1 MOL      0.711510
    108 O17         0.4380   -2.2110   -3.4520 o         1 MOL     -0.666935
    109 O18        -0.3920   -1.2490   -1.7020 o         1 MOL     -0.666935
    110 H47         1.4760   -0.9720    0.5880 hn        1 MOL      0.040200
    111 H48         2.6760   -2.7130   -1.4850 h1        1 MOL      0.057918
    112 H49         2.6090   -0.8000   -2.9160 hc        1 MOL      0.049616
    113 H50         1.7540    0.1190   -1.6520 hc        1 MOL      0.049616
    114 N11         5.2320   -1.8240   -1.5660 n         1 MOL     -0.640974
    115 C36         6.5910   -1.3940   -1.3930 c3        1 MOL      0.507151
    116 C37         6.8160    0.1110   -1.3930 c         1 MOL      0.073164
    117 O19         7.5910    0.5950   -0.5520 o         1 MOL     -0.436902
    118 C38         7.5410   -2.1260   -2.3990 c3        1 MOL     -0.465725
    119 C39         8.9230   -1.9540   -1.9000 ca        1 MOL      0.137663
    120 C40         9.7410   -0.9510   -2.4400 ca        1 MOL     -0.136944
    121 C41         9.3810   -2.8360   -0.9460 ca        1 MOL     -0.136944
    122 C42        11.0620   -0.8550   -1.9960 ca        1 MOL     -0.170490
    123 C43        10.7070   -2.6380   -0.4840 ca        1 MOL     -0.170490
    124 C44        11.5460   -1.6520   -0.9640 ca        1 MOL     -0.031187
    125 H51         5.1140   -2.6090   -2.1870 hn        1 MOL      0.330922
    126 H52         6.8560   -1.7010   -0.3800 h1        1 MOL      0.025554
    127 H53         7.4680   -1.6520   -3.3690 hc        1 MOL      0.140175
    128 H54         7.2900   -3.1860   -2.3730 hc        1 MOL      0.140175
    129 H55         9.3020   -0.3710   -3.2420 ha        1 MOL      0.119584
    130 H56         8.7700   -3.6510   -0.5890 ha        1 MOL      0.119584
    131 H57        11.7310   -0.1150   -2.4180 ha        1 MOL      0.113083
    132 H58        11.1440   -3.2330    0.2950 ha        1 MOL      0.113083
    133 H59        12.5940   -1.5880   -0.7360 ha        1 MOL      0.084640
    134 N12         6.2450    0.9670   -2.2620 n         1 MOL      0.096472
    135 C45         6.4040    2.4310   -1.9670 c3        1 MOL      0.142256
    136 C46         5.7460    2.9610   -0.6880 c         1 MOL      0.158050
    137 O20         6.2550    3.8620   -0.0760 o         1 MOL     -0.477448
    138 C47         5.8360    3.1510   -3.1870 c3        1 MOL     -0.137893
    139 C48         5.5970    2.0640   -4.2520 c3        1 MOL      0.013629
    140 C49         5.5290    0.7150   -3.5130 c3        1 MOL     -0.133249
    141 H60         7.4670    2.6340   -1.9170 h1        1 MOL      0.050783
    142 H61         4.7960    3.3750   -2.9260 hc        1 MOL      0.057456
    143 H62         6.4580    3.9450   -3.6070 hc        1 MOL      0.057456
    144 H63         4.7180    2.3020   -4.8600 hc        1 MOL      0.018633
    145 H64         6.4980    1.9650   -4.8440 hc        1 MOL      0.018633
    146 H65         4.4920    0.5080   -3.2590 h1        1 MOL      0.056408
    147 H66         5.9900   -0.0580   -4.1270 h1        1 MOL      0.056408
    148 N13         4.7350    2.3370   -0.0810 n         1 MOL      0.038089
    149 C50         4.1070    2.7310    1.2420 c3        1 MOL     -0.255088
    150 C51         4.9610    2.2850    2.4610 c         1 MOL      0.493516
    151 O21         5.0660    2.9710    3.4690 o         1 MOL     -0.582186
    152 C52         2.6680    2.1150    1.4260 c3        1 MOL      0.046629
    153 C53         1.7660    2.3530    0.1690 c3        1 MOL     -0.148799
    154 C54         0.4340    1.6100    0.2480 c         1 MOL      0.639599
    155 O22        -0.5390    2.1090   -0.4200 o         1 MOL     -0.673262
    156 O23         0.1880    0.5800    0.9650 o         1 MOL     -0.673262
    157 H67         4.2390    1.6550   -0.6330 hn        1 MOL      0.146114
    158 H68         4.0590    3.8220    1.2480 h1        1 MOL      0.153834
    159 H69         2.1940    2.6270    2.2610 hc        1 MOL      0.025468
    160 H70         2.6420    1.0920    1.7970 hc        1 MOL      0.025468
    161 H71         2.3340    2.0280   -0.7030 hc        1 MOL      0.057218
    162 H72         1.6220    3.4360    0.1540 hc        1 MOL      0.057218
    163 N14         5.6530    1.2120    2.3180 n         1 MOL     -0.031590
    164 C55         6.5760    0.6620    3.2930 c3        1 MOL     -0.180601
    165 H73         6.8760    1.4440    3.9900 h1        1 MOL      0.073450
    166 H74         6.0880   -0.1440    3.8420 h1        1 MOL      0.073450
    167 H75         7.4570    0.2730    2.7830 h1        1 MOL      0.073450
    168 H76         5.4780    0.6550    1.4950 hn        1 MOL      0.062834
    169 Ca1        -2.1680   -0.1130   -0.0950 Ca        1 MOL      1.681736
    170 O24        -1.8300   -0.1340    2.5780 oh        1 MOL     -0.743595
    171 H77        -0.8720   -0.1560    2.5900 ho        1 MOL      0.371495
    172 H78        -2.0630    0.1320    3.4660 ho        1 MOL      0.371495
    173 O25        -4.5190   -0.6620    1.3630 oh        1 MOL     -0.743595
    174 H79        -5.0110    0.1510    1.5050 ho        1 MOL      0.371495
    175 H80        -4.5510   -1.1100    2.2060 ho        1 MOL      0.371495
@<TRIPOS>BOND
     1    1    2 1   
     2    1    4 1   
     3    1    5 1   
     4    1    6 1   
     5    2    3 2   
     6    2    7 1   
     7    7    8 1   
     8    7   15 1   
     9    8    9 1   
    10    8   11 1   
    11    8   16 1   
    12    9   10 2   
    13    9   19 1   
    14   11   12 1   
    15   11   17 1   
    16   11   18 1   
    17   12   13 1   
    18   12   14 1   
    19   19   20 1   
    20   19   24 1   
    21   20   21 1   
    22   20   23 1   
    23   20   25 1   
    24   21   22 2   
    25   21   29 1   
    26   23   26 1   
    27   23   27 1   
    28   23   28 1   
    29   29   30 1   
    30   29   37 1   
    31   30   31 1   
    32   30   33 1   
    33   30   38 1   
    34   31   32 2   
    35   31   41 1   
    36   33   34 1   
    37   33   39 1   
    38   33   40 1   
    39   34   35 1   
    40   34   36 1   
    41   41   42 1   
    42   41   45 1   
    43   42   43 1   
    44   42   46 1   
    45   42   47 1   
    46   43   44 2   
    47   43   48 1   
    48   48   49 1   
    49   48   56 1   
    50   49   50 1   
    51   49   52 1   
    52   49   57 1   
    53   50   51 2   
    54   50   62 1   
    55   52   53 1   
    56   52   58 1   
    57   52   59 1   
    58   53   54 1   
    59   53   55 2   
    60   54   60 1   
    61   54   61 1   
    62   62   63 1   
    63   62   66 1   
    64   63   64 1   
    65   63   67 1   
    66   63   68 1   
    67   64   65 2   
    68   64   69 1   
    69   69   70 1   
    70   69   76 1   
    71   70   71 1   
    72   70   73 1   
    73   70   77 1   
    74   71   72 2   
    75   71   83 1   
    76   73   74 1   
    77   73   75 1   
    78   73   78 1   
    79   74   80 1   
    80   74   81 1   
    81   74   82 1   
    82   75   79 1   
    83   83   84 1   
    84   83   91 1   
    85   84   85 1   
    86   84   87 1   
    87   84   92 1   
    88   85   86 2   
    89   85  102 1   
    90   87   88 1   
    91   87   89 1   
    92   87   93 1   
    93   88   90 1   
    94   88   94 1   
    95   88   95 1   
    96   89   96 1   
    97   89   97 1   
    98   89   98 1   
    99   90   99 1   
   100   90  100 1   
   101   90  101 1   
   102  102  103 1   
   103  102  110 1   
   104  103  104 1   
   105  103  106 1   
   106  103  111 1   
   107  104  105 2   
   108  104  114 1   
   109  106  107 1   
   110  106  112 1   
   111  106  113 1   
   112  107  108 1   
   113  107  109 1   
   114  114  115 1   
   115  114  125 1   
   116  115  116 1   
   117  115  118 1   
   118  115  126 1   
   119  116  117 2   
   120  116  134 1   
   121  118  119 1   
   122  118  127 1   
   123  118  128 1   
   124  119  120 ar  
   125  119  121 ar  
   126  120  122 ar  
   127  120  129 1   
   128  121  123 ar  
   129  121  130 1   
   130  122  124 ar  
   131  122  131 1   
   132  123  124 ar  
   133  123  132 1   
   134  124  133 1   
   135  134  135 1   
   136  134  140 1   
   137  135  136 1   
   138  135  138 1   
   139  135  141 1   
   140  136  137 2   
   141  136  148 1   
   142  138  139 1   
   143  138  142 1   
   144  138  143 1   
   145  139  140 1   
   146  139  144 1   
   147  139  145 1   
   148  140  146 1   
   149  140  147 1   
   150  148  149 1   
   151  148  157 1   
   152  149  150 1   
   153  149  152 1   
   154  149  158 1   
   155  150  151 2   
   156  150  163 1   
   157  152  153 1   
   158  152  159 1   
   159  152  160 1   
   160  153  154 1   
   161  153  161 1   
   162  153  162 1   
   163  154  155 1   
   164  154  156 1   
   165  163  164 1   
   166  163  168 1   
   167  164  165 1   
   168  164  166 1   
   169  164  167 1   
   170  170  171 1   
   171  170  172 1   
   172  173  174 1   
   173  173  175 1   
@<TRIPOS>SUBSTRUCTURE
     1 MOL         1 TEMP              0 ****  ****    0 ROOT
