@<TRIPOS>MOLECULE
MOL
  179   176     1     0     0
SMALL
resp


@<TRIPOS>ATOM
      1 C1          2.5920    4.6260    6.1200 c3        1 MOL     -0.371134
      2 C2          2.3410    3.7240    4.9020 c         1 MOL      0.672352
      3 O1          3.3230    3.3730    4.2650 o         1 MOL     -0.538812
      4 H1          2.0200    5.5480    6.0120 hc        1 MOL      0.099744
      5 H2          2.2790    4.1080    7.0270 hc        1 MOL      0.099744
      6 H3          3.6540    4.8630    6.1850 hc        1 MOL      0.099744
      7 N1          1.1100    3.5770    4.3950 n         1 MOL     -0.594960
      8 C3          0.8060    3.2320    2.9690 c3        1 MOL      0.161652
      9 C4          0.7650    4.4590    2.0850 c         1 MOL      0.513532
     10 O2          0.5990    5.6440    2.5580 o         1 MOL     -0.551581
     11 C5         -0.5250    2.4390    2.8480 c3        1 MOL     -0.076754
     12 C6         -0.6730    1.5020    1.6450 c         1 MOL      0.684896
     13 O3         -0.1190    1.7910    0.5720 o         1 MOL     -0.728722
     14 O4         -1.4080    0.5190    1.6350 o         1 MOL     -0.728722
     15 H4          0.2660    3.9200    4.8230 hn        1 MOL      0.305666
     16 H5          1.6060    2.6280    2.5440 h1        1 MOL      0.041130
     17 H6         -1.3610    3.1330    2.7910 hc        1 MOL      0.025797
     18 H7         -0.6600    1.8460    3.7520 hc        1 MOL      0.025797
     19 N2          0.8830    4.2900    0.7600 n         1 MOL     -0.345344
     20 C7          0.6290    5.2860   -0.2680 c3        1 MOL     -0.062342
     21 C8         -0.8220    5.5110   -0.5820 c         1 MOL      0.443967
     22 O5         -1.1640    6.6410   -0.9420 o         1 MOL     -0.561570
     23 C9          1.4320    4.8890   -1.5220 c3        1 MOL     -0.078046
     24 C10         2.9510    4.9140   -1.4060 c3        1 MOL      0.004091
     25 C11         3.7520    4.5650   -2.6650 c3        1 MOL     -0.074211
     26 C12         3.8170    5.5820   -3.7600 c3        1 MOL      0.088293
     27 N3          4.4710    5.0740   -5.0280 n4        1 MOL     -0.426927
     28 H8          0.9540    3.3440    0.4220 hn        1 MOL      0.285566
     29 H9          1.0920    6.2140    0.0580 h1        1 MOL      0.108140
     30 H10         1.1650    5.5010   -2.3840 hc        1 MOL      0.056011
     31 H11         1.0990    3.8720   -1.7360 hc        1 MOL      0.056011
     32 H12         3.3420    4.3360   -0.5750 hc        1 MOL      0.035159
     33 H13         3.1970    5.9600   -1.1960 hc        1 MOL      0.035159
     34 H14         3.4250    3.5790   -3.0010 hc        1 MOL      0.053943
     35 H15         4.7710    4.3890   -2.3200 hc        1 MOL      0.053943
     36 H16         4.3450    6.4300   -3.3330 hx        1 MOL      0.069727
     37 H17         2.7770    5.8890   -3.8600 hx        1 MOL      0.069727
     38 H18         4.1340    4.1330   -5.1520 hn        1 MOL      0.346863
     39 H19         4.1680    5.5570   -5.8590 hn        1 MOL      0.346863
     40 H20         5.4840    5.0320   -4.9750 hn        1 MOL      0.346863
     41 N4         -1.7470    4.5630   -0.5130 n         1 MOL     -0.022741
     42 C13        -3.1070    4.6290   -0.9840 c3        1 MOL     -0.202423
     43 C14        -4.0640    3.7670   -0.0360 c         1 MOL      0.596553
     44 O6         -3.7680    2.7790    0.5930 o         1 MOL     -0.511476
     45 C15        -3.3200    4.2960   -2.4810 c3        1 MOL     -0.082020
     46 C16        -3.1240    2.8680   -2.8640 c         1 MOL      0.696251
     47 O7         -2.1080    2.3600   -2.2610 o         1 MOL     -0.678738
     48 O8         -3.8350    2.3280   -3.7220 o         1 MOL     -0.678738
     49 H21        -1.4500    3.7000   -0.0750 hn        1 MOL      0.038395
     50 H22        -3.4970    5.6400   -0.9060 h1        1 MOL      0.082676
     51 H23        -2.6160    4.8230   -3.1210 hc        1 MOL      0.033630
     52 H24        -4.3200    4.6020   -2.7740 hc        1 MOL      0.033630
     53 N5         -5.3170    4.1720   -0.0040 n         1 MOL     -0.419045
     54 C17        -6.4100    3.7060    0.8940 c3        1 MOL     -0.349321
     55 C18        -7.0970    2.4080    0.4310 c         1 MOL      0.611590
     56 O9         -8.2430    2.1380    0.8430 o         1 MOL     -0.586256
     57 H25        -5.6380    4.8680   -0.6590 hn        1 MOL      0.316442
     58 H26        -7.2010    4.4570    0.9190 h1        1 MOL      0.182129
     59 H27        -5.9530    3.5770    1.8780 h1        1 MOL      0.182129
     60 N6         -6.3840    1.5050   -0.2340 n         1 MOL     -0.397019
     61 C19        -7.0170    0.2950   -0.7620 c3        1 MOL      0.085909
     62 C20        -7.0350   -0.9200    0.2750 c         1 MOL      0.428015
     63 O10        -7.4720   -1.9750   -0.0910 o         1 MOL     -0.504649
     64 C21        -6.4720   -0.1350   -2.1430 c3        1 MOL     -0.215749
     65 C22        -5.0660   -0.8030   -1.9740 c         1 MOL      0.597700
     66 N7         -4.7060   -1.7730   -2.7800 n         1 MOL     -0.455433
     67 O11        -4.3480   -0.3920   -1.0890 o         1 MOL     -0.682472
     68 H28        -5.4650    1.7200   -0.5870 hn        1 MOL      0.246951
     69 H29        -8.0970    0.4630   -0.8110 h1        1 MOL      0.085441
     70 H30        -6.4340    0.6730   -2.8690 hc        1 MOL      0.084741
     71 H31        -7.2450   -0.7850   -2.5580 hc        1 MOL      0.084741
     72 H32        -5.3130   -2.1010   -3.5130 hn        1 MOL      0.256490
     73 H33        -3.7040   -1.8400   -2.9330 hn        1 MOL      0.256490
     74 N8         -6.6270   -0.6950    1.4920 n         1 MOL     -0.156609
     75 C23        -6.7740   -1.6720    2.5620 c3        1 MOL     -0.231120
     76 C24        -5.6820   -2.7720    2.6540 c         1 MOL      0.452707
     77 O12        -5.8310   -3.7300    3.4350 o         1 MOL     -0.539768
     78 H34        -6.3450    0.2560    1.6850 hn        1 MOL      0.226832
     79 H35        -7.7180   -2.1840    2.3920 h1        1 MOL      0.127931
     80 H36        -6.8310   -1.1900    3.5300 h1        1 MOL      0.127931
     81 N9         -4.5880   -2.6150    1.9280 n         1 MOL     -0.113691
     82 C25        -3.3960   -3.5010    2.0570 c3        1 MOL      0.048102
     83 C26        -2.1050   -2.8230    1.6770 c         1 MOL      0.303490
     84 O13        -2.0450   -2.0080    0.7890 o         1 MOL     -0.397424
     85 C27        -3.6280   -4.8780    1.3410 c3        1 MOL     -0.212599
     86 C28        -3.7490   -4.8860   -0.1550 ca        1 MOL      0.139567
     87 C29        -2.5860   -5.0150   -0.9480 ca        1 MOL     -0.178987
     88 C30        -4.9790   -4.7680   -0.7120 ca        1 MOL     -0.178987
     89 C31        -2.7790   -5.1980   -2.3670 ca        1 MOL     -0.315030
     90 C32        -5.2320   -4.8280   -2.0800 ca        1 MOL     -0.315030
     91 C33        -4.1120   -5.0260   -2.8880 ca        1 MOL      0.381511
     92 O14        -4.1930   -5.0960   -4.2530 oh        1 MOL     -0.479339
     93 H37        -4.5290   -1.7340    1.4260 hn        1 MOL      0.146725
     94 H38        -3.3750   -3.6480    3.1340 h1        1 MOL      0.049857
     95 H39        -4.5200   -5.2870    1.8200 hc        1 MOL      0.081551
     96 H40        -2.7420   -5.4940    1.5230 hc        1 MOL      0.081551
     97 H41        -1.6010   -5.0070   -0.4980 ha        1 MOL      0.172933
     98 H42        -5.7800   -4.6940    0.0010 ha        1 MOL      0.172933
     99 H43        -1.9080   -5.4410   -2.9620 ha        1 MOL      0.172858
    100 H44        -6.2140   -4.6490   -2.4770 ha        1 MOL      0.172858
    101 H45        -3.3190   -5.2840   -4.5920 ho        1 MOL      0.328518
    102 N10        -1.0340   -3.1400    2.4080 n         1 MOL     -0.325654
    103 C34         0.3320   -2.6720    2.2430 c3        1 MOL     -0.033548
    104 C35         1.2920   -3.7180    1.6520 c         1 MOL      0.484114
    105 O15         1.1510   -4.8760    1.9590 o         1 MOL     -0.560377
    106 C36         0.8800   -1.9570    3.5280 c3        1 MOL      0.176118
    107 C37         2.2380   -1.3020    3.1650 c3        1 MOL      0.086459
    108 C38         0.7460   -2.7480    4.8440 c3        1 MOL     -0.409824
    109 C39         2.6570   -0.1900    4.1240 c3        1 MOL     -0.309849
    110 H46        -1.1630   -3.7860    3.1770 hn        1 MOL      0.285632
    111 H47         0.3670   -1.8750    1.4950 h1        1 MOL      0.091166
    112 H48         0.1690   -1.1280    3.6330 hc        1 MOL      0.030736
    113 H49         2.1810   -0.8140    2.1980 hc        1 MOL     -0.008256
    114 H50         3.0330   -2.0520    3.1160 hc        1 MOL     -0.008256
    115 H51         1.5800   -3.4410    4.9410 hc        1 MOL      0.098141
    116 H52         0.7560   -2.0140    5.6550 hc        1 MOL      0.098141
    117 H53        -0.2230   -3.2360    4.8200 hc        1 MOL      0.098141
    118 H54         1.8300    0.5190    4.0830 hc        1 MOL      0.075245
    119 H55         2.9080   -0.5470    5.1280 hc        1 MOL      0.075245
    120 H56         3.5610    0.2890    3.7470 hc        1 MOL      0.075245
    121 N11         2.2030   -3.2980    0.7710 n         1 MOL     -0.052582
    122 C40         3.3440   -4.0790    0.2430 c3        1 MOL     -0.058421
    123 C41         4.7890   -3.5240    0.5440 c         1 MOL      0.319936
    124 O16         4.8680   -2.3840    1.0790 o         1 MOL     -0.356392
    125 C42         3.1430   -4.2610   -1.2400 c3        1 MOL     -0.055312
    126 O17         3.0910   -2.9800   -1.8650 oh        1 MOL     -0.551946
    127 H57         2.2400   -2.2980    0.6200 hn        1 MOL      0.001340
    128 H58         3.3020   -5.0410    0.7470 h1        1 MOL      0.065099
    129 H59         2.1660   -4.7400   -1.3220 h1        1 MOL      0.071627
    130 H60         3.9380   -4.8060   -1.7530 h1        1 MOL      0.071627
    131 H61         2.2850   -2.5830   -1.5200 ho        1 MOL      0.417694
    132 N12         5.8080   -4.2610    0.2420 n         1 MOL     -0.207230
    133 C43         7.2310   -3.8820    0.2810 c3        1 MOL      0.004500
    134 C44         7.6530   -2.6340   -0.6000 c         1 MOL      0.500655
    135 O18         8.3960   -1.7920   -0.1580 o         1 MOL     -0.480438
    136 C45         8.0020   -5.1240   -0.2030 c3        1 MOL     -0.319776
    137 H62         5.6430   -5.2390    0.0670 hn        1 MOL      0.242142
    138 H63         7.4190   -3.6850    1.3350 h1        1 MOL      0.100379
    139 H64         7.6940   -6.0080    0.3490 hc        1 MOL      0.101462
    140 H65         7.7770   -5.2950   -1.2620 hc        1 MOL      0.101462
    141 H66         9.0590   -4.8640   -0.1450 hc        1 MOL      0.101462
    142 N13         7.1210   -2.5280   -1.8300 n         1 MOL     -0.330811
    143 C46         7.1840   -1.3850   -2.6940 c3        1 MOL     -0.018943
    144 C47         6.6730   -0.0960   -2.1720 c         1 MOL      0.398858
    145 O19         7.2430    0.9660   -2.3810 o         1 MOL     -0.537276
    146 C48         6.4660   -1.7270   -4.0680 c3        1 MOL     -0.361642
    147 H67         6.6850   -3.3500   -2.2080 hn        1 MOL      0.269353
    148 H68         8.2420   -1.2110   -2.9190 h1        1 MOL      0.105303
    149 H69         6.8010   -2.6480   -4.5600 hc        1 MOL      0.110045
    150 H70         5.3890   -1.8240   -3.9210 hc        1 MOL      0.110045
    151 H71         6.5200   -0.9610   -4.8430 hc        1 MOL      0.110045
    152 N14         5.6840   -0.1970   -1.2850 n         1 MOL     -0.062269
    153 C49         5.0480    0.9740   -0.5340 c3        1 MOL     -0.025672
    154 C50         5.6110    1.3370    0.8570 c         1 MOL      0.424221
    155 O20         5.7680    2.4720    1.3300 o         1 MOL     -0.509756
    156 C51         3.5600    0.5020   -0.4360 c3        1 MOL      0.152647
    157 C52         2.7820    0.3850   -1.7360 c3        1 MOL     -0.262451
    158 C53         1.3970   -0.0970   -1.6080 c         1 MOL      0.962337
    159 O21         1.0110   -0.9500   -0.7690 o         1 MOL     -0.828309
    160 O22         0.5340    0.4750   -2.3440 o         1 MOL     -0.828309
    161 H72         5.4990   -1.1220   -0.9430 hn        1 MOL      0.199678
    162 H73         5.0050    1.8690   -1.1610 h1        1 MOL      0.006959
    163 H74         3.0510    1.1590    0.2690 hc        1 MOL     -0.006240
    164 H75         3.5890   -0.5130   -0.0510 hc        1 MOL     -0.006240
    165 H76         3.3070   -0.2210   -2.4720 hc        1 MOL      0.002329
    166 H77         2.6870    1.3720   -2.1910 hc        1 MOL      0.002329
    167 N15         5.9090    0.2550    1.5970 n         1 MOL     -0.006279
    168 C54         6.8330    0.3880    2.7070 c3        1 MOL     -0.485806
    169 H78         6.5000    1.1930    3.3620 h1        1 MOL      0.164508
    170 H79         6.8650   -0.5470    3.2680 h1        1 MOL      0.164508
    171 H80         7.8280    0.6190    2.3270 h1        1 MOL      0.164508
    172 H81         5.7660   -0.6380    1.1560 hn        1 MOL      0.034214
    173 Ca1        -1.5800    0.1640   -0.9260 Ca        1 MOL      1.790607
    174 O23        -2.3730   -0.0430   -4.0250 oh        1 MOL     -0.781645
    175 H82        -2.8270    0.8080   -4.0250 ho        1 MOL      0.362635
    176 H83        -2.4950   -0.3750   -4.9180 ho        1 MOL      0.362635
    177 O24        -1.4810   -2.3630   -2.1510 oh        1 MOL     -0.781645
    178 H84        -1.9730   -3.1810   -2.2350 ho        1 MOL      0.362635
    179 H85        -0.7700   -2.4490   -2.7930 ho        1 MOL      0.362635
@<TRIPOS>BOND
     1    1    2 1   
     2    1    4 1   
     3    1    5 1   
     4    1    6 1   
     5    2    3 2   
     6    2    7 1   
     7    7    8 1   
     8    7   15 1   
     9    8    9 1   
    10    8   11 1   
    11    8   16 1   
    12    9   10 2   
    13    9   19 1   
    14   11   12 1   
    15   11   17 1   
    16   11   18 1   
    17   12   13 1   
    18   12   14 1   
    19   19   20 1   
    20   19   28 1   
    21   20   21 1   
    22   20   23 1   
    23   20   29 1   
    24   21   22 2   
    25   21   41 1   
    26   23   24 1   
    27   23   30 1   
    28   23   31 1   
    29   24   25 1   
    30   24   32 1   
    31   24   33 1   
    32   25   26 1   
    33   25   34 1   
    34   25   35 1   
    35   26   27 1   
    36   26   36 1   
    37   26   37 1   
    38   27   38 1   
    39   27   39 1   
    40   27   40 1   
    41   41   42 1   
    42   41   49 1   
    43   42   43 1   
    44   42   45 1   
    45   42   50 1   
    46   43   44 2   
    47   43   53 1   
    48   45   46 1   
    49   45   51 1   
    50   45   52 1   
    51   46   47 1   
    52   46   48 1   
    53   53   54 1   
    54   53   57 1   
    55   54   55 1   
    56   54   58 1   
    57   54   59 1   
    58   55   56 2   
    59   55   60 1   
    60   60   61 1   
    61   60   68 1   
    62   61   62 1   
    63   61   64 1   
    64   61   69 1   
    65   62   63 2   
    66   62   74 1   
    67   64   65 1   
    68   64   70 1   
    69   64   71 1   
    70   65   66 1   
    71   65   67 2   
    72   66   72 1   
    73   66   73 1   
    74   74   75 1   
    75   74   78 1   
    76   75   76 1   
    77   75   79 1   
    78   75   80 1   
    79   76   77 2   
    80   76   81 1   
    81   81   82 1   
    82   81   93 1   
    83   82   83 1   
    84   82   85 1   
    85   82   94 1   
    86   83   84 2   
    87   83  102 1   
    88   85   86 1   
    89   85   95 1   
    90   85   96 1   
    91   86   87 ar  
    92   86   88 ar  
    93   87   89 ar  
    94   87   97 1   
    95   88   90 ar  
    96   88   98 1   
    97   89   91 ar  
    98   89   99 1   
    99   90   91 ar  
   100   90  100 1   
   101   91   92 1   
   102   92  101 1   
   103  102  103 1   
   104  102  110 1   
   105  103  104 1   
   106  103  106 1   
   107  103  111 1   
   108  104  105 2   
   109  104  121 1   
   110  106  107 1   
   111  106  108 1   
   112  106  112 1   
   113  107  109 1   
   114  107  113 1   
   115  107  114 1   
   116  108  115 1   
   117  108  116 1   
   118  108  117 1   
   119  109  118 1   
   120  109  119 1   
   121  109  120 1   
   122  121  122 1   
   123  121  127 1   
   124  122  123 1   
   125  122  125 1   
   126  122  128 1   
   127  123  124 2   
   128  123  132 1   
   129  125  126 1   
   130  125  129 1   
   131  125  130 1   
   132  126  131 1   
   133  132  133 1   
   134  132  137 1   
   135  133  134 1   
   136  133  136 1   
   137  133  138 1   
   138  134  135 2   
   139  134  142 1   
   140  136  139 1   
   141  136  140 1   
   142  136  141 1   
   143  142  143 1   
   144  142  147 1   
   145  143  144 1   
   146  143  146 1   
   147  143  148 1   
   148  144  145 2   
   149  144  152 1   
   150  146  149 1   
   151  146  150 1   
   152  146  151 1   
   153  152  153 1   
   154  152  161 1   
   155  153  154 1   
   156  153  156 1   
   157  153  162 1   
   158  154  155 2   
   159  154  167 1   
   160  156  157 1   
   161  156  163 1   
   162  156  164 1   
   163  157  158 1   
   164  157  165 1   
   165  157  166 1   
   166  158  159 1   
   167  158  160 1   
   168  167  168 1   
   169  167  172 1   
   170  168  169 1   
   171  168  170 1   
   172  168  171 1   
   173  174  175 1   
   174  174  176 1   
   175  177  178 1   
   176  177  179 1   
@<TRIPOS>SUBSTRUCTURE
     1 MOL         1 TEMP              0 ****  ****    0 ROOT
