@<TRIPOS>MOLECULE
MOL
  182   178     1     0     0
SMALL
resp


@<TRIPOS>ATOM
      1 C1          2.2130    3.3110    4.6180 c3        1 MOL     -0.240726
      2 C2          1.2950    3.0280    3.4520 c         1 MOL      0.670795
      3 O1          1.7610    3.1100    2.3060 o         1 MOL     -0.560129
      4 H1          2.3080    2.4150    5.2310 hc        1 MOL      0.070062
      5 H2          3.1950    3.6020    4.2460 hc        1 MOL      0.070062
      6 H3          1.7980    4.1200    5.2200 hc        1 MOL      0.070062
      7 N1          0.0090    2.6380    3.6850 n         1 MOL     -0.634065
      8 C3         -0.9460    2.1070    2.7130 c3        1 MOL      0.159965
      9 C4         -1.4410    3.3040    1.9000 c         1 MOL      0.610652
     10 O2         -2.3100    4.0260    2.3650 o         1 MOL     -0.591101
     11 C5         -2.0130    1.1190    3.3240 c3        1 MOL     -0.225170
     12 C6         -2.9230    0.5750    2.2690 c         1 MOL      0.728667
     13 O3         -2.6880    0.6810    1.0020 o         1 MOL     -0.690275
     14 O4         -4.0290    0.0870    2.6700 o         1 MOL     -0.690275
     15 H4         -0.3230    2.6690    4.6380 hn        1 MOL      0.315936
     16 H5         -0.3730    1.4890    2.0370 h1        1 MOL      0.081998
     17 H6         -2.5930    1.5760    4.1270 hc        1 MOL      0.076382
     18 H7         -1.4670    0.2560    3.7270 hc        1 MOL      0.076382
     19 N2         -0.8950    3.4360    0.7190 n         1 MOL     -0.476307
     20 C7         -1.0030    4.6730   -0.1470 c3        1 MOL      0.208994
     21 C8         -2.3580    4.9000   -0.8780 c         1 MOL      0.337242
     22 O5         -2.5980    6.0300   -1.3140 o         1 MOL     -0.543970
     23 C9          0.3030    4.8520   -1.0250 c3        1 MOL     -0.041166
     24 C10         0.3220    6.1760   -1.8840 c3        1 MOL     -0.113086
     25 C11         0.2750    7.4240   -1.0560 c3        1 MOL     -0.082359
     26 C12         0.3130    8.6070   -1.9090 c3        1 MOL      0.196501
     27 N3          0.3210    9.8900   -1.1710 n4        1 MOL     -0.516173
     28 H8         -0.1770    2.7710    0.4560 hn        1 MOL      0.199164
     29 H9         -0.9900    5.4260    0.6380 h1        1 MOL      0.056136
     30 H10         0.5700    4.0250   -1.6770 hc        1 MOL      0.062705
     31 H11         1.0570    5.0550   -0.2600 hc        1 MOL      0.062705
     32 H12        -0.5810    6.1500   -2.5040 hc        1 MOL      0.046173
     33 H13         1.1340    6.1420   -2.5970 hc        1 MOL      0.046173
     34 H14         1.2060    7.3620   -0.5040 hc        1 MOL      0.037163
     35 H15        -0.5500    7.4150   -0.3490 hc        1 MOL      0.037163
     36 H16        -0.5180    8.5740   -2.6140 hx        1 MOL      0.042407
     37 H17         1.2180    8.6270   -2.5210 hx        1 MOL      0.042407
     38 H18         0.2750   10.6320   -1.8590 hn        1 MOL      0.370962
     39 H19        -0.5970    9.7930   -0.7590 hn        1 MOL      0.370962
     40 H20         1.0900    9.8790   -0.5230 hn        1 MOL      0.370962
     41 N4         -3.1970    3.8960   -0.9510 n         1 MOL     -0.168247
     42 C13        -4.5840    3.9920   -1.3940 c3        1 MOL      0.047428
     43 C14        -5.6050    3.4730   -0.3730 c         1 MOL      0.400108
     44 O6         -6.8100    3.5440   -0.6090 o         1 MOL     -0.520989
     45 C15        -4.7150    3.2480   -2.7560 c3        1 MOL     -0.255963
     46 C16        -4.2620    1.8400   -2.7580 c         1 MOL      0.974362
     47 O7         -4.2650    1.1750   -3.7880 o         1 MOL     -0.785987
     48 O8         -3.7630    1.2720   -1.7680 o         1 MOL     -0.785987
     49 H21        -2.9450    2.9800   -0.6090 hn        1 MOL      0.132268
     50 H22        -4.8990    5.0130   -1.6170 h1        1 MOL      0.094435
     51 H23        -4.0300    3.7380   -3.4470 hc        1 MOL      0.062901
     52 H24        -5.7330    3.2880   -3.1540 hc        1 MOL      0.062901
     53 N5         -5.2130    2.9610    0.7570 n         1 MOL     -0.190668
     54 C17        -6.1330    2.3590    1.7300 c3        1 MOL     -0.259577
     55 C18        -6.7810    1.0530    1.2990 c         1 MOL      0.605296
     56 O9         -7.7890    0.7320    1.8770 o         1 MOL     -0.575451
     57 H25        -4.2390    2.7760    0.9210 hn        1 MOL      0.151828
     58 H26        -6.9130    3.0980    1.9160 h1        1 MOL      0.144149
     59 H27        -5.4970    2.1420    2.5890 h1        1 MOL      0.144149
     60 N6         -6.1530    0.2750    0.3880 n         1 MOL     -0.255926
     61 C19        -6.7430   -0.9880   -0.1540 c3        1 MOL     -0.021209
     62 C20        -6.6100   -2.2540    0.7430 c         1 MOL      0.388227
     63 O10        -7.1290   -3.3110    0.4900 o         1 MOL     -0.530000
     64 C21        -6.2960   -1.3010   -1.5810 c3        1 MOL     -0.272077
     65 C22        -4.9800   -2.0980   -1.6100 c         1 MOL      0.657551
     66 N7         -4.9290   -3.1440   -2.3670 n         1 MOL     -0.717103
     67 O11        -3.9660   -1.6740   -0.9240 o         1 MOL     -0.621544
     68 H28        -5.2550    0.6260    0.0700 hn        1 MOL      0.133064
     69 H29        -7.8110   -0.7530   -0.1290 h1        1 MOL      0.121346
     70 H30        -6.1970   -0.3470   -2.1000 hc        1 MOL      0.105256
     71 H31        -7.1330   -1.8000   -2.0770 hc        1 MOL      0.105256
     72 H32        -5.8290   -3.3180   -2.8030 hn        1 MOL      0.347906
     73 H33        -4.1170   -3.7270   -2.2680 hn        1 MOL      0.347906
     74 N8         -5.7490   -2.2000    1.7700 n         1 MOL     -0.099589
     75 C23        -5.6040   -3.2230    2.8880 c3        1 MOL     -0.271118
     76 C24        -4.3240   -4.0670    2.7650 c         1 MOL      0.594055
     77 O12        -4.0220   -4.9900    3.5380 o         1 MOL     -0.562948
     78 H34        -5.2220   -1.3590    1.9670 hn        1 MOL      0.228993
     79 H35        -6.4110   -3.9420    3.0490 h1        1 MOL      0.131760
     80 H36        -5.4430   -2.6860    3.8190 h1        1 MOL      0.131760
     81 N9         -3.5060   -3.7570    1.7090 n         1 MOL     -0.405195
     82 C25        -2.1950   -4.3030    1.6480 c3        1 MOL      0.150161
     83 C26        -1.1270   -3.2050    1.3430 c         1 MOL      0.674064
     84 O13        -1.4660   -2.1920    0.6860 o         1 MOL     -0.636610
     85 C27        -2.1450   -5.6360    0.8730 c3        1 MOL     -0.151453
     86 C28        -2.0670   -5.4840   -0.6680 ca        1 MOL      0.153708
     87 C29        -0.9060   -5.0660   -1.3630 ca        1 MOL     -0.263519
     88 C30        -3.1840   -5.8910   -1.4500 ca        1 MOL     -0.263519
     89 C31        -0.8890   -4.8580   -2.7430 ca        1 MOL     -0.134826
     90 C32        -3.2230   -5.5740   -2.7720 ca        1 MOL     -0.134826
     91 C33        -2.0640   -5.0750   -3.4530 ca        1 MOL      0.239720
     92 O14        -2.0740   -4.8240   -4.7890 oh        1 MOL     -0.474790
     93 H37        -3.6040   -2.9150    1.1580 hn        1 MOL      0.222954
     94 H38        -1.9610   -4.6030    2.6630 h1        1 MOL      0.024279
     95 H39        -3.0770   -6.1500    1.0620 hc        1 MOL      0.073922
     96 H40        -1.4060   -6.3100    1.3060 hc        1 MOL      0.073922
     97 H41        -0.0360   -4.7450   -0.8150 ha        1 MOL      0.151246
     98 H42        -4.1290   -6.2000   -1.0100 ha        1 MOL      0.151246
     99 H43        -0.0070   -4.5440   -3.2830 ha        1 MOL      0.119479
    100 H44        -4.0980   -5.7690   -3.3660 ha        1 MOL      0.119479
    101 H45        -2.9060   -5.1570   -5.1500 ho        1 MOL      0.346865
    102 N10         0.1560   -3.4440    1.7400 n         1 MOL     -0.615363
    103 C34         1.3700   -2.6890    1.2390 c3        1 MOL     -0.035799
    104 C35         2.4830   -3.5420    0.4510 c         1 MOL      0.501228
    105 O15         2.6130   -4.7350    0.6870 o         1 MOL     -0.515986
    106 C36         1.9590   -1.8900    2.4320 c3        1 MOL      0.036988
    107 C37         2.5410   -2.7970    3.5210 c3        1 MOL     -0.526477
    108 C38         0.8410   -0.9470    2.9630 c3        1 MOL     -0.021071
    109 C39         3.4000   -1.9480    4.4960 c3        1 MOL      0.027016
    110 H46         0.4140   -4.1800    2.3740 hn        1 MOL      0.328809
    111 H47         1.0870   -1.9700    0.4670 h1        1 MOL      0.196686
    112 H48         2.7250   -1.2720    1.9530 hc        1 MOL      0.073054
    113 H49         3.2160   -3.5410    3.1020 hc        1 MOL      0.185273
    114 H50         1.7240   -3.2080    4.1140 hc        1 MOL      0.185273
    115 H51         1.2490   -0.2320    3.6720 hc        1 MOL      0.016795
    116 H52         0.3190   -0.4890    2.1290 hc        1 MOL      0.016795
    117 H53         0.0680   -1.5240    3.4720 hc        1 MOL      0.016795
    118 H54         2.8460   -1.5730    5.3560 hc        1 MOL      0.013655
    119 H55         4.2070   -2.4660    5.0090 hc        1 MOL      0.013655
    120 H56         3.8630   -1.1040    3.9900 hc        1 MOL      0.013655
    121 N11         3.3140   -2.7700   -0.3060 n         1 MOL     -0.256100
    122 C40         4.5500   -3.2220   -0.9750 c3        1 MOL      0.024148
    123 C41         5.8420   -2.7600   -0.2760 c         1 MOL      0.445857
    124 O16         5.9080   -2.1410    0.7640 o         1 MOL     -0.402837
    125 C42         4.4060   -2.6620   -2.4650 c3        1 MOL     -0.031531
    126 O17         4.3950   -1.2110   -2.4720 oh        1 MOL     -0.534038
    127 H57         2.9980   -1.8430   -0.5400 hn        1 MOL      0.146848
    128 H58         4.5080   -4.3050   -1.0700 h1        1 MOL      0.060419
    129 H59         3.5900   -3.1680   -2.9900 h1        1 MOL      0.085368
    130 H60         5.3060   -2.9560   -3.0040 h1        1 MOL      0.085368
    131 H61         3.5730   -1.0100   -2.0190 ho        1 MOL      0.370388
    132 N12         7.0300   -3.0890   -0.8610 n         1 MOL     -0.397529
    133 C43         8.3330   -2.5360   -0.3910 c3        1 MOL      0.051854
    134 C44         8.5360   -1.0250   -0.7770 c         1 MOL      0.529295
    135 O18         8.9850   -0.2860    0.0850 o         1 MOL     -0.521786
    136 C45         9.4470   -3.3930   -0.9750 c3        1 MOL     -0.291867
    137 H62         7.1980   -3.8180   -1.5350 hn        1 MOL      0.242098
    138 H63         8.2700   -2.7900    0.6680 h1        1 MOL      0.106713
    139 H64        10.1740   -3.4620   -0.1720 hc        1 MOL      0.091316
    140 H65         9.2280   -4.4420   -1.2150 hc        1 MOL      0.091316
    141 H66         9.7850   -2.9700   -1.9130 hc        1 MOL      0.091316
    142 N13         8.1140   -0.5320   -1.9550 n         1 MOL     -0.509139
    143 C46         7.9540    0.8960   -2.2230 c3        1 MOL      0.289865
    144 C47         7.2620    1.7210   -1.1310 c         1 MOL      0.249643
    145 O19         7.7750    2.7480   -0.6660 o         1 MOL     -0.497924
    146 C48         7.1780    1.0210   -3.5540 c3        1 MOL     -0.376885
    147 H67         7.7390   -1.2280   -2.5870 hn        1 MOL      0.310051
    148 H68         8.8950    1.3910   -2.4440 h1        1 MOL      0.040837
    149 H69         6.7610    2.0300   -3.6010 hc        1 MOL      0.093328
    150 H70         7.8440    0.7750   -4.3820 hc        1 MOL      0.093328
    151 H71         6.3170    0.3600   -3.6220 hc        1 MOL      0.093328
    152 N14         6.1310    1.2310   -0.7110 n         1 MOL      0.043884
    153 C49         5.3350    1.8810    0.3320 c3        1 MOL     -0.128381
    154 C50         6.0480    1.8390    1.7280 c         1 MOL      0.394627
    155 O20         5.9160    2.8070    2.5030 o         1 MOL     -0.538537
    156 C51         4.0580    1.0580    0.4480 c3        1 MOL      0.165596
    157 C52         2.9560    1.5610   -0.4480 c3        1 MOL      0.008786
    158 C53         1.7360    0.5340   -0.6450 c         1 MOL      0.670506
    159 O21         2.1120   -0.4970   -1.2000 o         1 MOL     -0.686697
    160 O22         0.5620    0.7480   -0.3700 o         1 MOL     -0.686697
    161 H72         5.7560    0.4600   -1.2330 hn        1 MOL      0.105874
    162 H73         5.2230    2.8960   -0.0550 h1        1 MOL      0.102303
    163 H74         3.6540    1.1990    1.4470 hc        1 MOL     -0.049033
    164 H75         4.3510    0.0230    0.2510 hc        1 MOL     -0.049033
    165 H76         3.3760    1.8360   -1.4160 hc        1 MOL     -0.039858
    166 H77         2.5620    2.4850   -0.0190 hc        1 MOL     -0.039858
    167 N15         6.7920    0.7820    2.0530 n         1 MOL      0.028247
    168 C54         7.6440    0.7480    3.2720 c3        1 MOL     -0.296990
    169 H78         7.4680   -0.1820    3.8120 h1        1 MOL      0.112331
    170 H79         8.6930    0.8070    2.9840 h1        1 MOL      0.112331
    171 H80         7.3950    1.5930    3.9140 h1        1 MOL      0.112331
    172 H81         6.7040   -0.0880    1.5320 hn        1 MOL      0.081898
    173 Ca1        -1.7960   -0.1620   -1.1110 Ca        1 MOL      1.766790
    174 O23        -2.7690   -1.0480   -3.5720 oh        1 MOL     -0.881062
    175 H82        -2.9290   -1.6250   -4.3190 ho        1 MOL      0.416656
    176 H83        -3.3720   -0.3140   -3.7050 ho        1 MOL      0.416656
    177 O24         0.1430   -1.6780   -2.2280 oh        1 MOL     -0.881062
    178 H84         0.4880   -1.7910   -3.1060 ho        1 MOL      0.416656
    179 H85         0.7580   -1.0740   -1.8030 ho        1 MOL      0.416656
    180 O25        -0.7870    1.5010   -2.8520 oh        1 MOL     -0.881062
    181 H86        -1.0940    2.0200   -3.5990 ho        1 MOL      0.416656
    182 H87         0.1180    1.2710   -3.0790 ho        1 MOL      0.416656
@<TRIPOS>BOND
     1    1    2 1   
     2    1    4 1   
     3    1    5 1   
     4    1    6 1   
     5    2    3 2   
     6    2    7 1   
     7    7    8 1   
     8    7   15 1   
     9    8    9 1   
    10    8   11 1   
    11    8   16 1   
    12    9   10 2   
    13    9   19 1   
    14   11   12 1   
    15   11   17 1   
    16   11   18 1   
    17   12   13 1   
    18   12   14 1   
    19   19   20 1   
    20   19   28 1   
    21   20   21 1   
    22   20   23 1   
    23   20   29 1   
    24   21   22 2   
    25   21   41 1   
    26   23   24 1   
    27   23   30 1   
    28   23   31 1   
    29   24   25 1   
    30   24   32 1   
    31   24   33 1   
    32   25   26 1   
    33   25   34 1   
    34   25   35 1   
    35   26   27 1   
    36   26   36 1   
    37   26   37 1   
    38   27   38 1   
    39   27   39 1   
    40   27   40 1   
    41   41   42 1   
    42   41   49 1   
    43   42   43 1   
    44   42   45 1   
    45   42   50 1   
    46   43   44 2   
    47   43   53 1   
    48   45   46 1   
    49   45   51 1   
    50   45   52 1   
    51   46   47 1   
    52   46   48 1   
    53   53   54 1   
    54   53   57 1   
    55   54   55 1   
    56   54   58 1   
    57   54   59 1   
    58   55   56 2   
    59   55   60 1   
    60   60   61 1   
    61   60   68 1   
    62   61   62 1   
    63   61   64 1   
    64   61   69 1   
    65   62   63 2   
    66   62   74 1   
    67   64   65 1   
    68   64   70 1   
    69   64   71 1   
    70   65   66 1   
    71   65   67 2   
    72   66   72 1   
    73   66   73 1   
    74   74   75 1   
    75   74   78 1   
    76   75   76 1   
    77   75   79 1   
    78   75   80 1   
    79   76   77 2   
    80   76   81 1   
    81   81   82 1   
    82   81   93 1   
    83   82   83 1   
    84   82   85 1   
    85   82   94 1   
    86   83   84 2   
    87   83  102 1   
    88   85   86 1   
    89   85   95 1   
    90   85   96 1   
    91   86   87 ar  
    92   86   88 ar  
    93   87   89 ar  
    94   87   97 1   
    95   88   90 ar  
    96   88   98 1   
    97   89   91 ar  
    98   89   99 1   
    99   90   91 ar  
   100   90  100 1   
   101   91   92 1   
   102   92  101 1   
   103  102  103 1   
   104  102  110 1   
   105  103  104 1   
   106  103  106 1   
   107  103  111 1   
   108  104  105 2   
   109  104  121 1   
   110  106  107 1   
   111  106  108 1   
   112  106  112 1   
   113  107  109 1   
   114  107  113 1   
   115  107  114 1   
   116  108  115 1   
   117  108  116 1   
   118  108  117 1   
   119  109  118 1   
   120  109  119 1   
   121  109  120 1   
   122  121  122 1   
   123  121  127 1   
   124  122  123 1   
   125  122  125 1   
   126  122  128 1   
   127  123  124 2   
   128  123  132 1   
   129  125  126 1   
   130  125  129 1   
   131  125  130 1   
   132  126  131 1   
   133  132  133 1   
   134  132  137 1   
   135  133  134 1   
   136  133  136 1   
   137  133  138 1   
   138  134  135 2   
   139  134  142 1   
   140  136  139 1   
   141  136  140 1   
   142  136  141 1   
   143  142  143 1   
   144  142  147 1   
   145  143  144 1   
   146  143  146 1   
   147  143  148 1   
   148  144  145 2   
   149  144  152 1   
   150  146  149 1   
   151  146  150 1   
   152  146  151 1   
   153  152  153 1   
   154  152  161 1   
   155  153  154 1   
   156  153  156 1   
   157  153  162 1   
   158  154  155 2   
   159  154  167 1   
   160  156  157 1   
   161  156  163 1   
   162  156  164 1   
   163  157  158 1   
   164  157  165 1   
   165  157  166 1   
   166  158  159 1   
   167  158  160 1   
   168  167  168 1   
   169  167  172 1   
   170  168  169 1   
   171  168  170 1   
   172  168  171 1   
   173  174  175 1   
   174  174  176 1   
   175  177  178 1   
   176  177  179 1   
   177  180  181 1   
   178  180  182 1   
@<TRIPOS>SUBSTRUCTURE
     1 MOL         1 TEMP              0 ****  ****    0 ROOT
