@<TRIPOS>MOLECULE
MOL
  186   183     1     0     0
SMALL
resp


@<TRIPOS>ATOM
      1 C1          0.2660   -1.9000    6.2860 c3        1 MOL     -0.246364
      2 C2          0.6140   -1.7510    4.8020 c         1 MOL      0.782528
      3 O1         -0.3060   -1.8160    4.0070 o         1 MOL     -0.592647
      4 H1          0.7570   -1.1090    6.8540 hc        1 MOL      0.045614
      5 H2         -0.8130   -1.8240    6.4150 hc        1 MOL      0.045614
      6 H3          0.6090   -2.8700    6.6440 hc        1 MOL      0.045614
      7 N1          1.8610   -1.5050    4.4980 n         1 MOL     -0.694167
      8 C3          2.4830   -1.4990    3.1870 c3        1 MOL      0.190499
      9 C4          2.9390   -2.9420    2.8130 c         1 MOL      0.510155
     10 O2          3.6490   -3.6170    3.4930 o         1 MOL     -0.558652
     11 C5          3.6850   -0.5490    3.2350 c3        1 MOL     -0.106356
     12 C6          4.4130   -0.5410    1.9200 c         1 MOL      0.742522
     13 O3          5.6430   -0.3400    1.9480 o         1 MOL     -0.708834
     14 O4          3.7850   -0.7290    0.8370 o         1 MOL     -0.708834
     15 H4          2.4480   -1.3630    5.2960 hn        1 MOL      0.338667
     16 H5          1.7970   -1.1510    2.4200 h1        1 MOL      0.022553
     17 H6          4.3320   -0.8250    4.0730 hc        1 MOL     -0.000188
     18 H7          3.3210    0.4520    3.4480 hc        1 MOL     -0.000188
     19 N2          2.5040   -3.3760    1.5690 n         1 MOL     -0.199146
     20 C7          2.6110   -4.7610    1.1320 c3        1 MOL     -0.160057
     21 C8          3.7390   -4.9160    0.0930 c         1 MOL      0.680845
     22 O5          4.3850   -5.8920    0.1260 o         1 MOL     -0.616574
     23 C9          1.1930   -5.3210    0.6950 c3        1 MOL      0.280277
     24 C10         0.1520   -5.4310    1.8290 c3        1 MOL     -0.069618
     25 C11         1.2700   -6.7210    0.0840 c3        1 MOL     -0.310403
     26 C12        -1.2550   -5.8860    1.4890 c3        1 MOL     -0.002856
     27 H8          1.7950   -2.8150    1.1150 hn        1 MOL      0.169581
     28 H9          2.7630   -5.3740    2.0120 h1        1 MOL      0.072290
     29 H10         0.6970   -4.7310   -0.0770 hc        1 MOL     -0.003714
     30 H11         0.0580   -4.4010    2.1580 hc        1 MOL     -0.004346
     31 H12         0.5630   -6.0010    2.6590 hc        1 MOL     -0.004346
     32 H13         1.7110   -7.4110    0.8130 hc        1 MOL      0.055351
     33 H14         0.2730   -7.1110   -0.1230 hc        1 MOL      0.055351
     34 H15         1.7550   -6.7870   -0.8900 hc        1 MOL      0.055351
     35 H16        -1.3650   -6.9460    1.2730 hc        1 MOL      0.004422
     36 H17        -1.9290   -5.7180    2.3270 hc        1 MOL      0.004422
     37 H18        -1.7400   -5.3470    0.6780 hc        1 MOL      0.004422
     38 N3          4.0490   -3.9250   -0.7460 n         1 MOL     -0.463926
     39 C13         4.9770   -4.0680   -1.8740 c3        1 MOL      0.194151
     40 C14         6.2720   -3.3380   -1.7540 c         1 MOL      0.313064
     41 O6          7.1140   -3.5030   -2.6810 o         1 MOL     -0.532604
     42 C15         4.2890   -3.8410   -3.1980 c3        1 MOL     -0.277999
     43 C16         3.5710   -2.4400   -3.2440 c         1 MOL      0.832704
     44 O7          3.8820   -1.5020   -2.4670 o         1 MOL     -0.704571
     45 O8          2.7710   -2.2510   -4.1610 o         1 MOL     -0.704571
     46 H19         3.5550   -3.0460   -0.6830 hn        1 MOL      0.215215
     47 H20         5.1520   -5.1450   -1.9150 h1        1 MOL      0.065605
     48 H21         3.4160   -4.4990   -3.1810 hc        1 MOL      0.054940
     49 H22         4.9710   -4.0380   -4.0220 hc        1 MOL      0.054940
     50 N4          6.4500   -2.5480   -0.6470 n         1 MOL     -0.176243
     51 C17         7.6770   -1.9150   -0.1500 c3        1 MOL     -0.201815
     52 C18         8.0260   -0.5000   -0.6700 c         1 MOL      0.543665
     53 O9          9.1550   -0.0650   -0.4330 o         1 MOL     -0.601497
     54 H23         5.6340   -2.4870   -0.0580 hn        1 MOL      0.198736
     55 H24         8.5110   -2.5790   -0.3830 h1        1 MOL      0.106563
     56 H25         7.6310   -1.9670    0.9380 h1        1 MOL      0.106563
     57 N5          7.0400    0.3040   -1.1160 n         1 MOL     -0.233176
     58 C19         7.2320    1.6630   -1.6970 c3        1 MOL     -0.061410
     59 C20         7.4090    2.7580   -0.5650 c         1 MOL      0.530865
     60 O10         7.9850    3.8300   -0.7920 o         1 MOL     -0.568131
     61 C21         6.1650    1.9430   -2.7900 c3        1 MOL     -0.174494
     62 C22         4.7890    1.7580   -2.1690 c         1 MOL      0.718650
     63 O11         4.5520    1.7800   -0.9530 o         1 MOL     -0.769644
     64 O12         3.8650    1.5500   -2.9660 o         1 MOL     -0.769644
     65 H26         6.0930   -0.0250   -0.9660 hn        1 MOL      0.199935
     66 H27         8.1940    1.5680   -2.2010 h1        1 MOL      0.078735
     67 H28         6.3200    1.2220   -3.5940 hc        1 MOL      0.067947
     68 H29         6.2750    2.9570   -3.1810 hc        1 MOL      0.067947
     69 N6          6.9500    2.3730    0.6730 n         1 MOL     -0.334662
     70 C23         6.8280    3.3210    1.7940 c3        1 MOL     -0.066854
     71 C24         5.4760    3.9830    2.0090 c         1 MOL      0.513903
     72 O13         5.4790    4.8370    2.8690 o         1 MOL     -0.594501
     73 H30         6.5600    1.4650    0.8560 hn        1 MOL      0.283390
     74 H31         7.5620    4.1120    1.6000 h1        1 MOL      0.069643
     75 H32         7.1220    2.9640    2.7900 h1        1 MOL      0.069643
     76 N7          4.4450    3.7200    1.2180 n         1 MOL     -0.229608
     77 C25         3.1130    4.3890    1.3210 c3        1 MOL      0.015258
     78 C26         1.9810    3.2950    1.2490 c         1 MOL      0.503958
     79 O14         2.1130    2.3050    0.4900 o         1 MOL     -0.634246
     80 C27         2.8990    5.5050    0.3060 c3        1 MOL      0.005333
     81 C28         3.1310    5.0520   -1.1750 c3        1 MOL     -0.324700
     82 C29         2.9100    6.2530   -2.1160 c         1 MOL      0.697300
     83 N8          2.5580    6.1660   -3.3930 n         1 MOL     -0.817767
     84 O15         2.9300    7.4410   -1.6610 o         1 MOL     -0.595853
     85 H33         4.5250    2.9280    0.5990 hn        1 MOL      0.219058
     86 H34         3.0500    4.8600    2.3050 h1        1 MOL      0.017048
     87 H35         3.6200    6.2890    0.5670 hc        1 MOL      0.033755
     88 H36         1.8570    5.8170    0.3620 hc        1 MOL      0.033755
     89 H37         2.3930    4.2720   -1.3960 hc        1 MOL      0.139800
     90 H38         4.1590    4.6910   -1.1810 hc        1 MOL      0.139800
     91 H39         2.4670    5.2420   -3.7820 hn        1 MOL      0.365281
     92 H40         2.2430    7.0120   -3.8440 hn        1 MOL      0.365281
     93 N9          0.9320    3.5310    1.9640 n         1 MOL     -0.267057
     94 C30        -0.3030    2.7420    1.9300 c3        1 MOL     -0.067964
     95 C31        -1.2810    3.3200    0.9120 c         1 MOL      0.636568
     96 O16        -1.3950    4.5390    0.8160 o         1 MOL     -0.612411
     97 C32        -0.9040    2.5730    3.3780 c3        1 MOL     -0.014303
     98 C33        -2.2320    1.8450    3.5090 c3        1 MOL     -0.117607
     99 C34         0.0090    1.8450    4.2560 c3        1 MOL     -0.117607
    100 H41         0.8790    4.3870    2.5020 hn        1 MOL      0.238156
    101 H42        -0.0160    1.7480    1.5610 h1        1 MOL      0.168578
    102 H43        -1.0730    3.5630    3.8060 hc        1 MOL      0.020400
    103 H44        -3.0240    2.2160    2.8530 hc        1 MOL      0.029008
    104 H45        -2.0810    0.7970    3.2260 hc        1 MOL      0.029008
    105 H46        -2.6470    1.9300    4.5140 hc        1 MOL      0.029008
    106 H47         0.0040    0.7770    4.0720 hc        1 MOL      0.029008
    107 H48         1.0040    2.2850    4.3190 hc        1 MOL      0.029008
    108 H49        -0.3400    1.9470    5.2830 hc        1 MOL      0.029008
    109 N10        -1.9860    2.5210    0.1410 n         1 MOL     -0.383554
    110 C35        -3.2290    2.9510   -0.5880 c3        1 MOL      0.178737
    111 C36        -4.5470    2.3220   -0.0790 c         1 MOL      0.415139
    112 O17        -4.5240    1.4040    0.7350 o         1 MOL     -0.323305
    113 C37        -2.9040    2.8190   -2.0790 c3        1 MOL     -0.430587
    114 C38        -3.1320    1.4650   -2.6160 c         1 MOL      0.721924
    115 N11        -2.1820    0.5640   -2.5490 n         1 MOL     -0.820900
    116 O18        -4.2500    1.1620   -3.0440 o         1 MOL     -0.644956
    117 H50        -1.8210    1.5280    0.1880 hn        1 MOL      0.226663
    118 H51        -3.4120    4.0060   -0.4030 h1        1 MOL      0.038151
    119 H52        -1.9080    3.1440   -2.3630 hc        1 MOL      0.132999
    120 H53        -3.6570    3.4370   -2.5700 hc        1 MOL      0.132999
    121 H54        -1.3640    0.7870   -1.9980 hn        1 MOL      0.418530
    122 H55        -2.3470   -0.4000   -2.7930 hn        1 MOL      0.418530
    123 N12        -5.6660    2.6210   -0.7020 n         1 MOL     -0.621270
    124 C39        -6.9340    2.0320   -0.3370 c3        1 MOL      0.308577
    125 C40        -6.9060    0.4490   -0.3600 c         1 MOL      0.681908
    126 O19        -7.5460   -0.1490    0.4800 o         1 MOL     -0.497662
    127 C41        -8.0980    2.5460   -1.2110 c3        1 MOL     -0.126526
    128 C42        -9.4560    2.1170   -0.6930 ca        1 MOL      0.021407
    129 C43        -9.8120    2.2660    0.6640 ca        1 MOL     -0.204906
    130 C44       -10.3280    1.4720   -1.6550 ca        1 MOL     -0.204906
    131 C45       -11.0450    1.7690    1.1170 ca        1 MOL     -0.237657
    132 C46       -11.5220    0.8950   -1.1470 ca        1 MOL     -0.237657
    133 C47       -11.8750    1.0240    0.2010 ca        1 MOL      0.344524
    134 O20       -13.1180    0.6300    0.6250 oh        1 MOL     -0.510221
    135 H56        -5.6630    3.4570   -1.2650 hn        1 MOL      0.324128
    136 H57        -7.0370    2.3890    0.6890 h1        1 MOL      0.017668
    137 H58        -7.9170    2.2110   -2.2330 hc        1 MOL      0.047888
    138 H59        -8.0190    3.6290   -1.3000 hc        1 MOL      0.047888
    139 H60        -9.2190    2.8430    1.3550 ha        1 MOL      0.148890
    140 H61       -10.0520    1.5350   -2.6940 ha        1 MOL      0.148890
    141 H62       -11.3920    2.0020    2.1140 ha        1 MOL      0.142179
    142 H63       -12.1770    0.3160   -1.7750 ha        1 MOL      0.142179
    143 H64       -13.6710    0.3510   -0.1030 ho        1 MOL      0.351745
    144 N13        -6.3000   -0.1960   -1.3890 n         1 MOL     -0.664051
    145 C48        -6.2400   -1.6160   -1.5170 c3        1 MOL      0.226288
    146 C49        -5.4880   -2.2550   -0.4260 c         1 MOL      0.273088
    147 O21        -5.7120   -3.4040   -0.0550 o         1 MOL     -0.534866
    148 C50        -5.4850   -2.0190   -2.7790 c3        1 MOL      0.054814
    149 C51        -5.3700   -3.5270   -3.0940 c3        1 MOL     -0.585316
    150 C52        -4.3760   -3.8290   -4.3310 c         1 MOL      0.785669
    151 O22        -4.6950   -3.8780   -5.4980 o         1 MOL     -0.719973
    152 O23        -3.1460   -3.9600   -4.1320 o         1 MOL     -0.719973
    153 H65        -5.7970    0.3590   -2.0660 hn        1 MOL      0.316392
    154 H66        -7.2070   -2.0960   -1.4500 h1        1 MOL      0.039141
    155 H67        -4.4270   -1.8210   -2.6040 hc        1 MOL      0.047809
    156 H68        -5.9780   -1.4490   -3.5600 hc        1 MOL      0.047809
    157 H69        -6.3910   -3.8790   -3.0960 hc        1 MOL      0.124310
    158 H70        -4.9410   -4.0460   -2.2380 hc        1 MOL      0.124310
    159 N14        -4.5930   -1.5080    0.2340 n         1 MOL      0.060589
    160 C53        -3.7290   -1.9160    1.3470 c3        1 MOL     -0.078957
    161 C54        -4.3520   -1.6080    2.6920 c         1 MOL      0.370516
    162 O24        -3.9910   -2.2070    3.6520 o         1 MOL     -0.540563
    163 C55        -2.3460   -1.2740    1.2090 c3        1 MOL      0.118678
    164 C56        -1.4550   -1.9520    0.1230 c3        1 MOL     -0.162389
    165 C57        -0.1370   -1.1560   -0.1300 c         1 MOL      0.797681
    166 O25         1.0540   -1.7190   -0.1230 o         1 MOL     -0.824738
    167 O26        -0.1330    0.0450   -0.4000 o         1 MOL     -0.824738
    168 H71        -4.6680   -0.5480   -0.0710 hn        1 MOL      0.037563
    169 H72        -3.5870   -2.9950    1.3330 h1        1 MOL      0.111806
    170 H73        -1.8620   -1.3220    2.1860 hc        1 MOL      0.028084
    171 H74        -2.4180   -0.2010    1.0580 hc        1 MOL      0.028084
    172 H75        -2.0890   -2.0190   -0.7710 hc        1 MOL      0.037514
    173 H76        -1.1640   -2.9520    0.4380 hc        1 MOL      0.037514
    174 N15        -5.2350   -0.6550    2.7180 n         1 MOL      0.106013
    175 C58        -5.8870   -0.2100    3.9120 c3        1 MOL     -0.252706
    176 H77        -5.1760    0.3370    4.5310 h1        1 MOL      0.083477
    177 H78        -6.7180    0.4440    3.6510 h1        1 MOL      0.083477
    178 H79        -6.2620   -1.0720    4.4650 h1        1 MOL      0.083477
    179 H80        -5.5400   -0.2460    1.8510 hn        1 MOL     -0.130847
    180 Ca1         2.2950    0.2890   -1.1160 Ca        1 MOL      1.800227
    181 O27         0.8060   -0.7130   -3.2210 oh        1 MOL     -0.824035
    182 H81         1.3300   -1.2010   -3.8640 ho        1 MOL      0.387831
    183 H82        -0.0980   -0.9770   -3.4080 ho        1 MOL      0.387831
    184 O28         0.9920    2.1350   -2.4230 oh        1 MOL     -0.824035
    185 H83         1.4040    2.9640   -2.6680 ho        1 MOL      0.387831
    186 H84         0.7780    1.7140   -3.2560 ho        1 MOL      0.387831
@<TRIPOS>BOND
     1    1    2 1   
     2    1    4 1   
     3    1    5 1   
     4    1    6 1   
     5    2    3 2   
     6    2    7 1   
     7    7    8 1   
     8    7   15 1   
     9    8    9 1   
    10    8   11 1   
    11    8   16 1   
    12    9   10 2   
    13    9   19 1   
    14   11   12 1   
    15   11   17 1   
    16   11   18 1   
    17   12   13 1   
    18   12   14 1   
    19   19   20 1   
    20   19   27 1   
    21   20   21 1   
    22   20   23 1   
    23   20   28 1   
    24   21   22 2   
    25   21   38 1   
    26   23   24 1   
    27   23   25 1   
    28   23   29 1   
    29   24   26 1   
    30   24   30 1   
    31   24   31 1   
    32   25   32 1   
    33   25   33 1   
    34   25   34 1   
    35   26   35 1   
    36   26   36 1   
    37   26   37 1   
    38   38   39 1   
    39   38   46 1   
    40   39   40 1   
    41   39   42 1   
    42   39   47 1   
    43   40   41 2   
    44   40   50 1   
    45   42   43 1   
    46   42   48 1   
    47   42   49 1   
    48   43   44 1   
    49   43   45 1   
    50   50   51 1   
    51   50   54 1   
    52   51   52 1   
    53   51   55 1   
    54   51   56 1   
    55   52   53 2   
    56   52   57 1   
    57   57   58 1   
    58   57   65 1   
    59   58   59 1   
    60   58   61 1   
    61   58   66 1   
    62   59   60 2   
    63   59   69 1   
    64   61   62 1   
    65   61   67 1   
    66   61   68 1   
    67   62   63 1   
    68   62   64 1   
    69   69   70 1   
    70   69   73 1   
    71   70   71 1   
    72   70   74 1   
    73   70   75 1   
    74   71   72 2   
    75   71   76 1   
    76   76   77 1   
    77   76   85 1   
    78   77   78 1   
    79   77   80 1   
    80   77   86 1   
    81   78   79 2   
    82   78   93 1   
    83   80   81 1   
    84   80   87 1   
    85   80   88 1   
    86   81   82 1   
    87   81   89 1   
    88   81   90 1   
    89   82   83 1   
    90   82   84 2   
    91   83   91 1   
    92   83   92 1   
    93   93   94 1   
    94   93  100 1   
    95   94   95 1   
    96   94   97 1   
    97   94  101 1   
    98   95   96 2   
    99   95  109 1   
   100   97   98 1   
   101   97   99 1   
   102   97  102 1   
   103   98  103 1   
   104   98  104 1   
   105   98  105 1   
   106   99  106 1   
   107   99  107 1   
   108   99  108 1   
   109  109  110 1   
   110  109  117 1   
   111  110  111 1   
   112  110  113 1   
   113  110  118 1   
   114  111  112 2   
   115  111  123 1   
   116  113  114 1   
   117  113  119 1   
   118  113  120 1   
   119  114  115 1   
   120  114  116 2   
   121  115  121 1   
   122  115  122 1   
   123  123  124 1   
   124  123  135 1   
   125  124  125 1   
   126  124  127 1   
   127  124  136 1   
   128  125  126 2   
   129  125  144 1   
   130  127  128 1   
   131  127  137 1   
   132  127  138 1   
   133  128  129 ar  
   134  128  130 ar  
   135  129  131 ar  
   136  129  139 1   
   137  130  132 ar  
   138  130  140 1   
   139  131  133 ar  
   140  131  141 1   
   141  132  133 ar  
   142  132  142 1   
   143  133  134 1   
   144  134  143 1   
   145  144  145 1   
   146  144  153 1   
   147  145  146 1   
   148  145  148 1   
   149  145  154 1   
   150  146  147 2   
   151  146  159 1   
   152  148  149 1   
   153  148  155 1   
   154  148  156 1   
   155  149  150 1   
   156  149  157 1   
   157  149  158 1   
   158  150  151 1   
   159  150  152 1   
   160  159  160 1   
   161  159  168 1   
   162  160  161 1   
   163  160  163 1   
   164  160  169 1   
   165  161  162 2   
   166  161  174 1   
   167  163  164 1   
   168  163  170 1   
   169  163  171 1   
   170  164  165 1   
   171  164  172 1   
   172  164  173 1   
   173  165  166 1   
   174  165  167 1   
   175  174  175 1   
   176  174  179 1   
   177  175  176 1   
   178  175  177 1   
   179  175  178 1   
   180  181  182 1   
   181  181  183 1   
   182  184  185 1   
   183  184  186 1   
@<TRIPOS>SUBSTRUCTURE
     1 MOL         1 TEMP              0 ****  ****    0 ROOT
