@<TRIPOS>MOLECULE
MOL
  189   185     1     0     0
SMALL
resp


@<TRIPOS>ATOM
      1 C1         -0.1220    1.1360    6.4840 c3        1 MOL     -0.352301
      2 C2         -0.3180    1.1410    4.9680 c         1 MOL      0.766459
      3 O1          0.5640    1.3930    4.1850 o         1 MOL     -0.628348
      4 H1         -0.9230    0.5660    6.9520 hc        1 MOL      0.083048
      5 H2          0.8380    0.6800    6.7250 hc        1 MOL      0.083048
      6 H3         -0.1410    2.1610    6.8560 hc        1 MOL      0.083048
      7 N1         -1.5780    0.8840    4.6450 n         1 MOL     -0.603807
      8 C3         -2.0650    0.9510    3.2580 c3        1 MOL      0.033762
      9 C4         -2.4390    2.3320    2.8890 c         1 MOL      0.488848
     10 O2         -3.4060    2.8820    3.4240 o         1 MOL     -0.544482
     11 C5         -3.3100   -0.0020    3.1880 c3        1 MOL     -0.182422
     12 C6         -3.7690   -0.0730    1.7510 c         1 MOL      0.731179
     13 O3         -4.6540   -0.8630    1.4800 o         1 MOL     -0.655905
     14 O4         -3.1260    0.5900    0.8710 o         1 MOL     -0.655905
     15 H4         -2.1410    0.5280    5.4160 hn        1 MOL      0.342504
     16 H5         -1.3930    0.4500    2.5640 h1        1 MOL      0.083281
     17 H6         -4.1080    0.4750    3.7660 hc        1 MOL      0.050442
     18 H7         -3.0600   -0.9800    3.5910 hc        1 MOL      0.050442
     19 N2         -1.6660    2.9900    2.1010 n         1 MOL     -0.125167
     20 C7         -1.7440    4.4130    1.8830 c3        1 MOL     -0.075285
     21 C8         -2.7880    4.7130    0.8870 c         1 MOL      0.464080
     22 O5         -3.5450    5.5890    1.1980 o         1 MOL     -0.585450
     23 C9         -0.3540    4.8250    1.3980 c3        1 MOL     -0.178544
     24 C10        -0.2190    6.3730    1.4610 c3        1 MOL     -0.208580
     25 C11         1.2580    6.6490    0.9810 c3        1 MOL     -0.122206
     26 C12         1.6780    8.1580    1.1970 c3        1 MOL     -0.058132
     27 N3          1.1290    9.0140    0.1680 n4        1 MOL     -0.360898
     28 H8         -0.9020    2.4770    1.6930 hn        1 MOL      0.131875
     29 H9         -1.9340    4.9540    2.8120 h1        1 MOL      0.105075
     30 H10        -0.0820    4.4510    0.4140 hc        1 MOL      0.119361
     31 H11         0.3420    4.3540    2.0990 hc        1 MOL      0.119361
     32 H12        -0.3040    6.7360    2.4920 hc        1 MOL      0.118757
     33 H13        -0.8790    6.9360    0.7910 hc        1 MOL      0.118757
     34 H14         1.5640    6.2450    0.0200 hc        1 MOL      0.084326
     35 H15         1.9270    6.1460    1.6860 hc        1 MOL      0.084326
     36 H16         2.7750    8.2340    1.1710 hx        1 MOL      0.115451
     37 H17         1.2590    8.4250    2.1670 hx        1 MOL      0.115451
     38 H18         1.2470    9.9850    0.4560 hn        1 MOL      0.331066
     39 H19         1.6570    8.9500   -0.6890 hn        1 MOL      0.331066
     40 H20         0.1340    8.8860    0.0540 hn        1 MOL      0.331066
     41 N4         -2.9460    4.0190   -0.2010 n         1 MOL     -0.210902
     42 C13        -3.9200    4.3630   -1.2300 c3        1 MOL      0.057018
     43 C14        -5.2490    3.6340   -1.1750 c         1 MOL      0.427158
     44 O6         -6.1150    4.0190   -1.9780 o         1 MOL     -0.525929
     45 C15        -3.3340    4.2640   -2.6130 c3        1 MOL     -0.148891
     46 C16        -2.8330    2.8470   -3.0400 c         1 MOL      0.724112
     47 O7         -2.9440    1.8730   -2.3040 o         1 MOL     -0.715534
     48 O8         -2.4080    2.7250   -4.2320 o         1 MOL     -0.715534
     49 H21        -2.2970    3.2530   -0.2990 hn        1 MOL      0.132376
     50 H22        -4.2160    5.4080   -1.1580 h1        1 MOL      0.068743
     51 H23        -2.5580    5.0260   -2.7040 hc        1 MOL      0.026738
     52 H24        -4.0720    4.7120   -3.2720 hc        1 MOL      0.026738
     53 N5         -5.3730    2.7040   -0.1990 n         1 MOL     -0.233506
     54 C17        -6.5510    1.9630    0.2460 c3        1 MOL      0.083553
     55 C18        -7.2010    1.0600   -0.6750 c         1 MOL      0.439946
     56 O9         -8.4070    1.2130   -0.8370 o         1 MOL     -0.547772
     57 H25        -4.5300    2.4150    0.2860 hn        1 MOL      0.200430
     58 H26        -7.2240    2.6380    0.7780 h1        1 MOL      0.028279
     59 H27        -6.1400    1.3450    1.0440 h1        1 MOL      0.028279
     60 N6         -6.4250    0.1830   -1.3420 n         1 MOL     -0.204055
     61 C19        -7.0580   -0.8600   -2.2470 c3        1 MOL      0.077733
     62 C20        -7.2250   -2.1890   -1.4490 c         1 MOL      0.396566
     63 O10        -7.9620   -3.1190   -1.8180 o         1 MOL     -0.541031
     64 C21        -6.0840   -1.1040   -3.4610 c3        1 MOL     -0.234212
     65 C22        -4.5950   -1.3460   -3.1760 c         1 MOL      0.726431
     66 O11        -4.1840   -1.3210   -1.9970 o         1 MOL     -0.682008
     67 O12        -3.7380   -1.5520   -4.0900 o         1 MOL     -0.682008
     68 H28        -5.4390    0.1280   -1.1350 hn        1 MOL      0.123799
     69 H29        -8.0410   -0.6110   -2.6370 h1        1 MOL      0.089020
     70 H30        -6.1510   -0.1830   -4.0320 hc        1 MOL      0.079786
     71 H31        -6.4430   -1.8780   -4.1430 hc        1 MOL      0.079786
     72 N7         -6.4440   -2.3650   -0.3130 n         1 MOL     -0.143722
     73 C23        -6.5930   -3.5150    0.5710 c3        1 MOL     -0.105503
     74 C24        -5.3570   -4.3640    0.6020 c         1 MOL      0.564246
     75 O13        -5.4770   -5.4920    1.0650 o         1 MOL     -0.581042
     76 H32        -5.7190   -1.6810   -0.1740 hn        1 MOL      0.064075
     77 H33        -7.4790   -4.1260    0.3950 h1        1 MOL      0.092282
     78 H34        -6.7530   -3.2060    1.6060 h1        1 MOL      0.092282
     79 N8         -4.2030   -3.8250    0.1650 n         1 MOL     -0.244973
     80 C25        -2.9590   -4.6040    0.1820 c3        1 MOL     -0.144464
     81 C26        -1.7540   -3.7160    0.3790 c         1 MOL      0.733332
     82 O14        -1.7190   -2.5430   -0.0190 o         1 MOL     -0.622552
     83 C27        -2.6150   -5.3580   -1.1410 c3        1 MOL      0.382431
     84 C28        -3.6470   -6.4230   -1.5210 c3        1 MOL     -0.372217
     85 O15        -2.6340   -4.4420   -2.2440 oh        1 MOL     -0.619494
     86 H35        -4.1520   -2.9300   -0.3110 hn        1 MOL      0.161626
     87 H36        -2.8640   -5.3380    0.9800 h1        1 MOL      0.062762
     88 H37        -1.6620   -5.8540   -0.9710 h1        1 MOL      0.033404
     89 H38        -3.5370   -4.3910   -2.5650 ho        1 MOL      0.415973
     90 H39        -4.4980   -5.8470   -1.8720 hc        1 MOL      0.098037
     91 H40        -3.1880   -7.0430   -2.2880 hc        1 MOL      0.098037
     92 H41        -3.8810   -7.1040   -0.6950 hc        1 MOL      0.098037
     93 N9         -0.6820   -4.2160    1.0030 n         1 MOL     -0.546661
     94 C29         0.5120   -3.4230    1.3580 c3        1 MOL     -0.000908
     95 C30         1.6250   -3.7330    0.3140 c         1 MOL      0.531637
     96 O16         1.8260   -4.9380    0.0050 o         1 MOL     -0.578554
     97 C31         0.9670   -3.6840    2.8340 c3        1 MOL     -0.012804
     98 C32        -0.0750   -3.0980    3.8350 c3        1 MOL      0.122255
     99 C33         2.2270   -3.0070    3.2060 c3        1 MOL     -0.056603
    100 C34         0.0370   -3.6650    5.2710 c3        1 MOL     -0.274373
    101 H42        -0.5980   -5.1990    1.2260 hn        1 MOL      0.297668
    102 H43         0.3670   -2.3550    1.1830 h1        1 MOL      0.118870
    103 H44         1.1250   -4.7410    3.0080 hc        1 MOL      0.062629
    104 H45        -1.0810   -3.4130    3.5550 hc        1 MOL     -0.002339
    105 H46         0.0060   -2.0110    3.7720 hc        1 MOL     -0.002339
    106 H47         2.9830   -2.9510    2.4200 hc        1 MOL     -0.006346
    107 H48         2.0670   -2.0030    3.6060 hc        1 MOL     -0.006346
    108 H49         2.6510   -3.6150    4.0010 hc        1 MOL     -0.006346
    109 H50         0.7360   -3.0630    5.8650 hc        1 MOL      0.064862
    110 H51        -0.8320   -3.5240    5.9140 hc        1 MOL      0.064862
    111 H52         0.4370   -4.6780    5.3110 hc        1 MOL      0.064862
    112 N10         2.2660   -2.6870   -0.2380 n         1 MOL      0.015310
    113 C35         3.2650   -2.7330   -1.2740 c3        1 MOL     -0.034014
    114 C36         4.7070   -2.5540   -0.6670 c         1 MOL      0.145929
    115 O17         4.7930   -2.0540    0.4440 o         1 MOL     -0.100410
    116 C37         3.1370   -1.5460   -2.2540 c3        1 MOL      0.117032
    117 C38         1.7720   -1.4590   -2.9630 c3        1 MOL     -0.338011
    118 O18         3.2070   -0.3370   -1.5320 oh        1 MOL     -0.228197
    119 H53         2.0430   -1.7330    0.0280 hn        1 MOL     -0.179430
    120 H54         3.1630   -3.6050   -1.9150 h1        1 MOL      0.096599
    121 H55         3.9390   -1.5380   -2.9980 h1        1 MOL      0.006022
    122 H56         3.1230    0.4530   -2.0730 ho        1 MOL      0.319093
    123 H57         1.0160   -1.3940   -2.1830 hc        1 MOL      0.115050
    124 H58         1.8180   -0.5700   -3.6040 hc        1 MOL      0.115050
    125 H59         1.5570   -2.3680   -3.5130 hc        1 MOL      0.115050
    126 N11         5.8030   -2.9520   -1.4090 n         1 MOL     -0.252647
    127 C39         7.1270   -2.7380   -0.8110 c3        1 MOL     -0.234210
    128 C40         7.6040   -1.2880   -0.5340 c         1 MOL      0.436037
    129 O19         8.7470   -1.1000   -0.0770 o         1 MOL     -0.502939
    130 C41         8.2520   -3.4960   -1.5410 c3        1 MOL      0.351973
    131 C42         8.1010   -4.9800   -1.3790 c3        1 MOL     -0.398830
    132 O20         8.2150   -3.1570   -2.9000 oh        1 MOL     -0.631038
    133 H60         5.8110   -3.2600   -2.3690 hn        1 MOL      0.290972
    134 H61         6.9850   -3.2480    0.1520 h1        1 MOL      0.168307
    135 H62         9.2230   -3.1650   -1.1620 h1        1 MOL      0.031258
    136 H63         8.9860   -3.5390   -3.3070 ho        1 MOL      0.410982
    137 H64         8.1830   -5.2300   -0.3280 hc        1 MOL      0.108412
    138 H65         7.1950   -5.4060   -1.8280 hc        1 MOL      0.108412
    139 H66         8.8910   -5.4570   -1.9630 hc        1 MOL      0.108412
    140 N12         6.7850   -0.2420   -0.7970 n         1 MOL     -0.144522
    141 C43         6.8420    1.1010   -0.2720 c3        1 MOL      0.014863
    142 C44         6.0040    1.2590    1.0330 c         1 MOL      0.505939
    143 O21         6.5160    1.7030    2.0500 o         1 MOL     -0.520528
    144 C45         6.3320    2.0220   -1.3920 c3        1 MOL     -0.115764
    145 C46         7.3820    2.3900   -2.4670 c3        1 MOL      0.091017
    146 C47         6.7510    3.1450   -3.6340 c3        1 MOL     -0.160068
    147 C48         7.7800    3.6690   -4.5660 c3        1 MOL      0.114304
    148 N13         7.1840    4.6900   -5.4340 n4        1 MOL     -0.211394
    149 H67         5.9230   -0.4950   -1.2660 hn        1 MOL      0.126635
    150 H68         7.8530    1.4070   -0.0140 h1        1 MOL      0.055183
    151 H69         6.1200    3.0030   -0.9700 hc        1 MOL      0.031208
    152 H70         5.3860    1.6320   -1.7690 hc        1 MOL      0.031208
    153 H71         7.9660    1.5360   -2.8130 hc        1 MOL      0.017678
    154 H72         8.0740    3.1160   -2.0420 hc        1 MOL      0.017678
    155 H73         6.2730    4.0020   -3.1610 hc        1 MOL      0.047874
    156 H74         6.0760    2.4410   -4.1180 hc        1 MOL      0.047874
    157 H75         8.3110    2.9280   -5.1530 hx        1 MOL      0.063171
    158 H76         8.5060    4.1820   -3.9210 hx        1 MOL      0.063171
    159 H77         7.8230    5.2260   -5.9930 hn        1 MOL      0.263397
    160 H78         6.5930    4.2350   -6.1160 hn        1 MOL      0.263397
    161 H79         6.5860    5.3090   -4.9020 hn        1 MOL      0.263397
    162 N14         4.7610    0.8570    0.9850 n         1 MOL     -0.313095
    163 C49         3.8350    0.8540    2.1440 c3        1 MOL     -0.139474
    164 C50         4.3980    0.0040    3.3430 c         1 MOL      0.450636
    165 O22         4.3350    0.4260    4.4780 o         1 MOL     -0.551627
    166 C51         2.4280    0.3430    1.6780 c3        1 MOL      0.096765
    167 C52         1.6940    1.4170    0.8120 c3        1 MOL      0.036642
    168 C53         0.4270    0.9080    0.1140 c         1 MOL      0.414501
    169 O23        -0.4780    1.7310   -0.2240 o         1 MOL     -0.651016
    170 O24         0.2980   -0.3390    0.0110 o         1 MOL     -0.651016
    171 H80         4.5020    0.2810    0.1890 hn        1 MOL      0.048342
    172 H81         3.6570    1.8690    2.4820 h1        1 MOL      0.117982
    173 H82         1.8600    0.1230    2.5870 hc        1 MOL      0.120422
    174 H83         2.4480   -0.6060    1.1450 hc        1 MOL      0.120422
    175 H84         2.3630    1.8080    0.0460 hc        1 MOL     -0.034624
    176 H85         1.4830    2.3140    1.3910 hc        1 MOL     -0.034624
    177 N15         4.9560   -1.0910    2.9760 n         1 MOL      0.082469
    178 C54         5.7100   -1.9350    3.9060 c3        1 MOL     -0.282058
    179 H86         5.0190   -2.5660    4.4650 h1        1 MOL      0.099992
    180 H87         6.4030   -2.5630    3.3460 h1        1 MOL      0.099992
    181 H88         6.2680   -1.3060    4.5980 h1        1 MOL      0.099992
    182 H89         4.9220   -1.4120    2.0230 hn        1 MOL     -0.063379
    183 Ca1        -1.8870   -0.2280   -1.3420 Ca        1 MOL      1.728997
    184 O25        -0.5180    0.8510   -3.5000 oh        1 MOL     -0.844823
    185 H90         0.1160    1.1090   -4.1760 ho        1 MOL      0.391793
    186 H91        -1.3210    1.3160   -3.7240 ho        1 MOL      0.391793
    187 O26        -1.3770   -2.1630   -3.2190 oh        1 MOL     -0.844823
    188 H92        -1.9150   -2.8600   -2.8440 ho        1 MOL      0.391793
    189 H93        -1.8720   -1.8410   -3.9700 ho        1 MOL      0.391793
@<TRIPOS>BOND
     1    1    2 1   
     2    1    4 1   
     3    1    5 1   
     4    1    6 1   
     5    2    3 2   
     6    2    7 1   
     7    7    8 1   
     8    7   15 1   
     9    8    9 1   
    10    8   11 1   
    11    8   16 1   
    12    9   10 2   
    13    9   19 1   
    14   11   12 1   
    15   11   17 1   
    16   11   18 1   
    17   12   13 1   
    18   12   14 1   
    19   19   20 1   
    20   19   28 1   
    21   20   21 1   
    22   20   23 1   
    23   20   29 1   
    24   21   22 2   
    25   21   41 1   
    26   23   24 1   
    27   23   30 1   
    28   23   31 1   
    29   24   25 1   
    30   24   32 1   
    31   24   33 1   
    32   25   26 1   
    33   25   34 1   
    34   25   35 1   
    35   26   27 1   
    36   26   36 1   
    37   26   37 1   
    38   27   38 1   
    39   27   39 1   
    40   27   40 1   
    41   41   42 1   
    42   41   49 1   
    43   42   43 1   
    44   42   45 1   
    45   42   50 1   
    46   43   44 2   
    47   43   53 1   
    48   45   46 1   
    49   45   51 1   
    50   45   52 1   
    51   46   47 1   
    52   46   48 1   
    53   53   54 1   
    54   53   57 1   
    55   54   55 1   
    56   54   58 1   
    57   54   59 1   
    58   55   56 2   
    59   55   60 1   
    60   60   61 1   
    61   60   68 1   
    62   61   62 1   
    63   61   64 1   
    64   61   69 1   
    65   62   63 2   
    66   62   72 1   
    67   64   65 1   
    68   64   70 1   
    69   64   71 1   
    70   65   66 1   
    71   65   67 1   
    72   72   73 1   
    73   72   76 1   
    74   73   74 1   
    75   73   77 1   
    76   73   78 1   
    77   74   75 2   
    78   74   79 1   
    79   79   80 1   
    80   79   86 1   
    81   80   81 1   
    82   80   83 1   
    83   80   87 1   
    84   81   82 2   
    85   81   93 1   
    86   83   84 1   
    87   83   85 1   
    88   83   88 1   
    89   84   90 1   
    90   84   91 1   
    91   84   92 1   
    92   85   89 1   
    93   93   94 1   
    94   93  101 1   
    95   94   95 1   
    96   94   97 1   
    97   94  102 1   
    98   95   96 2   
    99   95  112 1   
   100   97   98 1   
   101   97   99 1   
   102   97  103 1   
   103   98  100 1   
   104   98  104 1   
   105   98  105 1   
   106   99  106 1   
   107   99  107 1   
   108   99  108 1   
   109  100  109 1   
   110  100  110 1   
   111  100  111 1   
   112  112  113 1   
   113  112  119 1   
   114  113  114 1   
   115  113  116 1   
   116  113  120 1   
   117  114  115 2   
   118  114  126 1   
   119  116  117 1   
   120  116  118 1   
   121  116  121 1   
   122  117  123 1   
   123  117  124 1   
   124  117  125 1   
   125  118  122 1   
   126  126  127 1   
   127  126  133 1   
   128  127  128 1   
   129  127  130 1   
   130  127  134 1   
   131  128  129 2   
   132  128  140 1   
   133  130  131 1   
   134  130  132 1   
   135  130  135 1   
   136  131  137 1   
   137  131  138 1   
   138  131  139 1   
   139  132  136 1   
   140  140  141 1   
   141  140  149 1   
   142  141  142 1   
   143  141  144 1   
   144  141  150 1   
   145  142  143 2   
   146  142  162 1   
   147  144  145 1   
   148  144  151 1   
   149  144  152 1   
   150  145  146 1   
   151  145  153 1   
   152  145  154 1   
   153  146  147 1   
   154  146  155 1   
   155  146  156 1   
   156  147  148 1   
   157  147  157 1   
   158  147  158 1   
   159  148  159 1   
   160  148  160 1   
   161  148  161 1   
   162  162  163 1   
   163  162  171 1   
   164  163  164 1   
   165  163  166 1   
   166  163  172 1   
   167  164  165 2   
   168  164  177 1   
   169  166  167 1   
   170  166  173 1   
   171  166  174 1   
   172  167  168 1   
   173  167  175 1   
   174  167  176 1   
   175  168  169 1   
   176  168  170 1   
   177  177  178 1   
   178  177  182 1   
   179  178  179 1   
   180  178  180 1   
   181  178  181 1   
   182  184  185 1   
   183  184  186 1   
   184  187  188 1   
   185  187  189 1   
@<TRIPOS>SUBSTRUCTURE
     1 MOL         1 TEMP              0 ****  ****    0 ROOT
