@<TRIPOS>MOLECULE
MOL
  176   174     1     0     0
SMALL
resp


@<TRIPOS>ATOM
      1 C1         -0.4620   -4.4280    6.0940 c3        1 MOL     -0.351126
      2 C2         -0.3650   -3.7880    4.7370 c         1 MOL      0.699437
      3 O1         -1.4030   -3.3370    4.2440 o         1 MOL     -0.574974
      4 H1         -0.6160   -5.5000    5.9790 hc        1 MOL      0.094655
      5 H2          0.4620   -4.2510    6.6460 hc        1 MOL      0.094655
      6 H3         -1.3000   -3.9960    6.6410 hc        1 MOL      0.094655
      7 N1          0.8260   -3.7760    4.0550 n         1 MOL     -0.576176
      8 C3          1.2000   -3.2280    2.7090 c3        1 MOL      0.223048
      9 C4          1.5050   -4.3580    1.7070 c         1 MOL      0.396649
     10 O2          2.4120   -5.1770    2.0110 o         1 MOL     -0.538903
     11 C5          2.3000   -2.2300    2.8360 c3        1 MOL     -0.226938
     12 C6          2.6580   -1.5350    1.4970 c         1 MOL      0.810042
     13 O3          2.7350   -2.1660    0.4160 o         1 MOL     -0.710189
     14 O4          2.7600   -0.2940    1.5200 o         1 MOL     -0.710189
     15 H4          1.6750   -4.0320    4.5350 hn        1 MOL      0.297703
     16 H5          0.3250   -2.6870    2.3480 h1        1 MOL     -0.017042
     17 H6          3.2060   -2.6490    3.2680 hc        1 MOL      0.051394
     18 H7          1.9720   -1.4730    3.5530 hc        1 MOL      0.051394
     19 N2          0.8280   -4.3400    0.5370 n         1 MOL     -0.250418
     20 C7          0.9000   -5.3320   -0.5810 c3        1 MOL     -0.062776
     21 C8          2.1980   -5.2710   -1.3510 c         1 MOL      0.615311
     22 O5          2.4130   -6.2080   -2.1160 o         1 MOL     -0.627124
     23 C9         -0.3170   -5.0550   -1.4540 c3        1 MOL     -0.015431
     24 C10        -1.6770   -5.4790   -0.8920 c3        1 MOL     -0.229585
     25 C11        -2.8290   -4.9350   -1.7330 c3        1 MOL      0.154986
     26 C12        -3.0070   -5.7130   -3.0240 c3        1 MOL     -0.018921
     27 N3         -3.7580   -4.9550   -4.0020 n4        1 MOL     -0.317284
     28 H8          0.3280   -3.4830    0.3270 hn        1 MOL      0.206946
     29 H9          1.0180   -6.3470   -0.2060 h1        1 MOL      0.115525
     30 H10        -0.1820   -5.5150   -2.4340 hc        1 MOL      0.022020
     31 H11        -0.3790   -3.9930   -1.6880 hc        1 MOL      0.022020
     32 H12        -1.8410   -4.9440    0.0430 hc        1 MOL      0.081715
     33 H13        -1.6320   -6.5690   -0.8880 hc        1 MOL      0.081715
     34 H14        -2.6840   -3.8900   -2.0200 hc        1 MOL     -0.013157
     35 H15        -3.7580   -4.7520   -1.1890 hc        1 MOL     -0.013157
     36 H16        -3.5270   -6.6500   -2.7820 hx        1 MOL      0.094463
     37 H17        -2.0290   -5.8790   -3.4680 hx        1 MOL      0.094463
     38 H18        -4.6480   -4.6550   -3.6410 hn        1 MOL      0.316677
     39 H19        -3.2240   -4.1780   -4.3680 hn        1 MOL      0.316677
     40 H20        -3.9110   -5.4670   -4.8560 hn        1 MOL      0.316677
     41 N4          3.0650   -4.3250   -1.2800 n         1 MOL     -0.433401
     42 C13         4.2650   -4.1590   -2.1270 c3        1 MOL      0.201591
     43 C14         5.4820   -3.6440   -1.3160 c         1 MOL      0.353949
     44 O6          6.5950   -3.9970   -1.8040 o         1 MOL     -0.548570
     45 C15         3.9920   -3.1130   -3.2620 c3        1 MOL     -0.391653
     46 C16         3.2830   -1.9020   -2.7800 c         1 MOL      0.842084
     47 O7          3.8560   -1.0250   -2.0610 o         1 MOL     -0.762435
     48 O8          2.0430   -1.7850   -2.9490 o         1 MOL     -0.762435
     49 H21         2.7030   -3.4800   -0.8710 hn        1 MOL      0.280738
     50 H22         4.6090   -5.1190   -2.5130 h1        1 MOL      0.099800
     51 H23         3.3000   -3.5230   -3.9990 hc        1 MOL      0.094878
     52 H24         4.8950   -2.8300   -3.7860 hc        1 MOL      0.094878
     53 N5          5.3130   -2.9410   -0.2070 n         1 MOL     -0.105697
     54 C17         6.3610   -2.4200    0.6710 c3        1 MOL     -0.255167
     55 C18         7.0040   -1.0830    0.3460 c         1 MOL      0.471451
     56 O9          8.0230   -0.7100    0.9630 o         1 MOL     -0.507557
     57 H25         4.3400   -2.7140   -0.0380 hn        1 MOL      0.124523
     58 H26         7.2250   -3.0900    0.6820 h1        1 MOL      0.128866
     59 H27         5.9180   -2.3280    1.6540 h1        1 MOL      0.128866
     60 N6          6.3660   -0.3960   -0.6400 n         1 MOL     -0.139268
     61 C19         6.9320    0.8890   -1.1340 c3        1 MOL     -0.138962
     62 C20         7.2390    1.9490    0.0640 c         1 MOL      0.438123
     63 O10         8.2690    2.5940    0.1790 o         1 MOL     -0.503250
     64 C21         6.0800    1.5070   -2.2140 c3        1 MOL     -0.057404
     65 C22         4.6540    2.0380   -1.7670 c         1 MOL      0.634162
     66 N7          4.2490    3.1700   -2.2530 n         1 MOL     -0.829343
     67 O11         3.9800    1.4350   -0.9170 o         1 MOL     -0.672980
     68 H28         5.6200   -0.7580   -1.2180 hn        1 MOL      0.203836
     69 H29         7.8850    0.7490   -1.6450 h1        1 MOL      0.102385
     70 H30         6.0850    0.8670   -3.0970 hc        1 MOL      0.054544
     71 H31         6.5660    2.3830   -2.6480 hc        1 MOL      0.054544
     72 H32         4.8260    3.6460   -2.9220 hn        1 MOL      0.381463
     73 H33         3.5020    3.6760   -1.8150 hn        1 MOL      0.381463
     74 N8          6.2590    2.0390    0.9690 n         1 MOL     -0.199557
     75 C23         6.1580    3.1380    1.9810 c3        1 MOL     -0.185742
     76 C24         4.7950    3.7020    2.3850 c         1 MOL      0.484746
     77 O12         4.8440    4.4280    3.3880 o         1 MOL     -0.527986
     78 H34         5.4320    1.4590    0.9290 hn        1 MOL      0.196151
     79 H35         6.7590    4.0200    1.7810 h1        1 MOL      0.124761
     80 H36         6.4910    2.7290    2.9340 h1        1 MOL      0.124761
     81 N9          3.6740    3.3880    1.6470 n         1 MOL     -0.268747
     82 C25         2.3110    3.7500    1.9930 c3        1 MOL      0.043837
     83 C26         1.1360    2.8130    1.6090 c         1 MOL      0.595831
     84 O13         1.3700    2.0700    0.6470 o         1 MOL     -0.661245
     85 C27         2.0960    5.1770    1.4940 c3        1 MOL     -0.309234
     86 C28         2.1780    5.3790    0.0160 ca        1 MOL      0.100589
     87 C29         1.2230    4.8690   -0.8730 ca        1 MOL     -0.084252
     88 C30         3.1940    6.2200   -0.4200 ca        1 MOL     -0.084252
     89 C31         1.3360    5.1570   -2.2280 ca        1 MOL     -0.405120
     90 C32         3.3240    6.4770   -1.7490 ca        1 MOL     -0.405120
     91 C33         2.3580    6.0580   -2.6830 ca        1 MOL      0.471592
     92 O14         2.3360    6.3450   -4.0040 oh        1 MOL     -0.513769
     93 H37         3.8440    2.7800    0.8590 hn        1 MOL      0.231798
     94 H38         2.1940    3.7390    3.0790 h1        1 MOL      0.070031
     95 H39         2.8170    5.8920    1.8790 hc        1 MOL      0.104427
     96 H40         1.1180    5.5590    1.7880 hc        1 MOL      0.104427
     97 H41         0.4100    4.2170   -0.5680 ha        1 MOL      0.161017
     98 H42         4.0160    6.5390    0.1940 ha        1 MOL      0.161017
     99 H43         0.5550    4.7480   -2.8580 ha        1 MOL      0.174928
    100 H44         4.1030    7.1470   -2.0720 ha        1 MOL      0.174928
    101 H45         1.5920    5.9460   -4.4630 ho        1 MOL      0.364303
    102 N10        -0.0600    3.0290    2.1350 n         1 MOL     -0.342432
    103 C34        -1.2740    2.3660    1.6760 c3        1 MOL     -0.588543
    104 C35        -2.3510    3.3000    1.1060 c         1 MOL      0.682540
    105 O15        -2.4480    4.3910    1.6190 o         1 MOL     -0.531642
    106 C36        -1.9090    1.3890    2.7160 c3        1 MOL      0.567872
    107 C37        -2.3940    2.2220    3.9000 c3        1 MOL     -0.014917
    108 C38        -0.8510    0.2870    3.1350 c3        1 MOL      0.048925
    109 C39        -3.0880    1.2180    4.8800 c3        1 MOL     -0.126401
    110 H46        -0.1350    3.7790    2.8130 hn        1 MOL      0.299550
    111 H47        -1.1120    1.6950    0.8300 h1        1 MOL      0.204021
    112 H48        -2.6300    0.7640    2.1980 hc        1 MOL     -0.225700
    113 H49        -3.1650    2.9000    3.5200 hc        1 MOL      0.009953
    114 H50        -1.4930    2.6330    4.3630 hc        1 MOL      0.009953
    115 H51        -0.2570    0.0370    2.2490 hc        1 MOL     -0.013219
    116 H52        -0.1810    0.7650    3.8400 hc        1 MOL     -0.013219
    117 H53        -1.4230   -0.5480    3.5210 hc        1 MOL     -0.013219
    118 H54        -2.3770    0.6350    5.4530 hc        1 MOL      0.021227
    119 H55        -3.7040    1.8600    5.5100 hc        1 MOL      0.021227
    120 H56        -3.7960    0.6520    4.2770 hc        1 MOL      0.021227
    121 N11        -3.1760    2.8820    0.0940 n         1 MOL     -0.429728
    122 C40        -4.3510    3.6710   -0.3520 c3        1 MOL      0.027919
    123 C41        -5.6310    2.8810   -0.0860 c         1 MOL      0.652472
    124 O16        -5.6120    1.9320    0.6980 o         1 MOL     -0.473184
    125 C42        -4.2850    4.3040   -1.7480 c3        1 MOL      0.219735
    126 O17        -4.5500    3.1970   -2.6480 oh        1 MOL     -0.613720
    127 H57        -3.0780    1.9010   -0.1390 hn        1 MOL      0.156793
    128 H58        -4.4990    4.5090    0.3330 h1        1 MOL      0.049898
    129 H59        -3.3430    4.8160   -1.8960 h1        1 MOL      0.019991
    130 H60        -5.0890    5.0320   -1.7820 h1        1 MOL      0.019991
    131 H61        -3.7820    2.6240   -2.5870 ho        1 MOL      0.395283
    132 N12        -6.8110    3.3510   -0.5100 n         1 MOL     -0.699402
    133 C43        -8.0880    2.7390   -0.0190 c3        1 MOL      0.356629
    134 C44        -8.2600    1.2580   -0.3760 c         1 MOL      0.351157
    135 O18        -8.8060    0.5140    0.4650 o         1 MOL     -0.484012
    136 C45        -9.2290    3.3530   -0.7170 c3        1 MOL     -0.401937
    137 H62        -6.8390    4.2300   -1.0150 hn        1 MOL      0.376328
    138 H63        -8.1730    2.7540    1.0740 h1        1 MOL      0.041364
    139 H64        -8.9120    3.5750   -1.7330 hc        1 MOL      0.111120
    140 H65       -10.1730    2.8100   -0.6550 hc        1 MOL      0.111120
    141 H66        -9.4240    4.3220   -0.2710 hc        1 MOL      0.111120
    142 N13        -7.8780    0.9430   -1.6260 n         1 MOL     -0.348076
    143 C46        -8.0940   -0.3870   -2.0860 c3        1 MOL      0.139156
    144 C47        -7.1360   -1.3660   -1.4080 c         1 MOL      0.322051
    145 O19        -7.4390   -2.5410   -1.2560 o         1 MOL     -0.504157
    146 C48        -7.8570   -0.3610   -3.5680 c3        1 MOL     -0.154476
    147 H67        -7.4280    1.5960   -2.2600 hn        1 MOL      0.277926
    148 H68        -9.1400   -0.6530   -1.9390 h1        1 MOL      0.101545
    149 H69        -8.4600    0.4600   -3.9420 hc        1 MOL      0.037925
    150 H70        -6.8070   -0.2550   -3.8500 hc        1 MOL      0.037925
    151 H71        -8.3190   -1.2850   -3.9280 hc        1 MOL      0.037925
    152 N14        -6.0210   -0.8450   -0.9820 n         1 MOL     -0.143932
    153 C49        -4.9450   -1.5870   -0.2830 c3        1 MOL     -0.049210
    154 C50        -5.2340   -1.8010    1.2390 c         1 MOL      0.413951
    155 O20        -5.0460   -2.9170    1.7680 o         1 MOL     -0.502431
    156 C51        -3.6000   -0.8760   -0.6390 c3        1 MOL     -0.205288
    157 C52        -2.3190   -1.4900    0.0710 c3        1 MOL      0.049689
    158 C53        -0.9810   -1.0600   -0.3810 c         1 MOL      0.670140
    159 O21         0.0210   -1.7630   -0.0970 o         1 MOL     -0.730824
    160 O22        -0.8200    0.0620   -0.9750 o         1 MOL     -0.730824
    161 H72        -5.8490    0.1550   -1.0260 hn        1 MOL      0.109487
    162 H73        -4.8440   -2.6210   -0.6350 h1        1 MOL      0.082405
    163 H74        -3.6990    0.1620   -0.3000 hc        1 MOL      0.059082
    164 H75        -3.3650   -0.8610   -1.7020 hc        1 MOL      0.059082
    165 H76        -2.4060   -2.5660   -0.0450 hc        1 MOL      0.054337
    166 H77        -2.3450   -1.3400    1.1490 hc        1 MOL      0.054337
    167 N15        -5.9410   -0.8110    1.8390 n         1 MOL     -0.022383
    168 C54        -6.5980   -1.0710    3.1010 c3        1 MOL     -0.153274
    169 H78        -6.4850   -2.1240    3.3590 h1        1 MOL      0.074156
    170 H79        -6.1450   -0.4570    3.8790 h1        1 MOL      0.074156
    171 H80        -7.6570   -0.8290    3.0170 h1        1 MOL      0.074156
    172 H81        -5.9520    0.1120    1.4350 hn        1 MOL      0.136795
    173 Ca1         1.7950   -0.0630   -0.9350 Ca        1 MOL      1.776875
    174 O23         1.3560    1.0050   -3.3950 oh        1 MOL     -0.838307
    175 H82         0.6110    1.5000   -3.7220 ho        1 MOL      0.408185
    176 H83         2.0700    1.2040   -3.9960 ho        1 MOL      0.408185
@<TRIPOS>BOND
     1    1    2 1   
     2    1    4 1   
     3    1    5 1   
     4    1    6 1   
     5    2    3 2   
     6    2    7 1   
     7    7    8 1   
     8    7   15 1   
     9    8    9 1   
    10    8   11 1   
    11    8   16 1   
    12    9   10 2   
    13    9   19 1   
    14   11   12 1   
    15   11   17 1   
    16   11   18 1   
    17   12   13 1   
    18   12   14 1   
    19   19   20 1   
    20   19   28 1   
    21   20   21 1   
    22   20   23 1   
    23   20   29 1   
    24   21   22 2   
    25   21   41 1   
    26   23   24 1   
    27   23   30 1   
    28   23   31 1   
    29   24   25 1   
    30   24   32 1   
    31   24   33 1   
    32   25   26 1   
    33   25   34 1   
    34   25   35 1   
    35   26   27 1   
    36   26   36 1   
    37   26   37 1   
    38   27   38 1   
    39   27   39 1   
    40   27   40 1   
    41   41   42 1   
    42   41   49 1   
    43   42   43 1   
    44   42   45 1   
    45   42   50 1   
    46   43   44 2   
    47   43   53 1   
    48   45   46 1   
    49   45   51 1   
    50   45   52 1   
    51   46   47 1   
    52   46   48 1   
    53   53   54 1   
    54   53   57 1   
    55   54   55 1   
    56   54   58 1   
    57   54   59 1   
    58   55   56 2   
    59   55   60 1   
    60   60   61 1   
    61   60   68 1   
    62   61   62 1   
    63   61   64 1   
    64   61   69 1   
    65   62   63 2   
    66   62   74 1   
    67   64   65 1   
    68   64   70 1   
    69   64   71 1   
    70   65   66 1   
    71   65   67 2   
    72   66   72 1   
    73   66   73 1   
    74   74   75 1   
    75   74   78 1   
    76   75   76 1   
    77   75   79 1   
    78   75   80 1   
    79   76   77 2   
    80   76   81 1   
    81   81   82 1   
    82   81   93 1   
    83   82   83 1   
    84   82   85 1   
    85   82   94 1   
    86   83   84 2   
    87   83  102 1   
    88   85   86 1   
    89   85   95 1   
    90   85   96 1   
    91   86   87 ar  
    92   86   88 ar  
    93   87   89 ar  
    94   87   97 1   
    95   88   90 ar  
    96   88   98 1   
    97   89   91 ar  
    98   89   99 1   
    99   90   91 ar  
   100   90  100 1   
   101   91   92 1   
   102   92  101 1   
   103  102  103 1   
   104  102  110 1   
   105  103  104 1   
   106  103  106 1   
   107  103  111 1   
   108  104  105 2   
   109  104  121 1   
   110  106  107 1   
   111  106  108 1   
   112  106  112 1   
   113  107  109 1   
   114  107  113 1   
   115  107  114 1   
   116  108  115 1   
   117  108  116 1   
   118  108  117 1   
   119  109  118 1   
   120  109  119 1   
   121  109  120 1   
   122  121  122 1   
   123  121  127 1   
   124  122  123 1   
   125  122  125 1   
   126  122  128 1   
   127  123  124 2   
   128  123  132 1   
   129  125  126 1   
   130  125  129 1   
   131  125  130 1   
   132  126  131 1   
   133  132  133 1   
   134  132  137 1   
   135  133  134 1   
   136  133  136 1   
   137  133  138 1   
   138  134  135 2   
   139  134  142 1   
   140  136  139 1   
   141  136  140 1   
   142  136  141 1   
   143  142  143 1   
   144  142  147 1   
   145  143  144 1   
   146  143  146 1   
   147  143  148 1   
   148  144  145 2   
   149  144  152 1   
   150  146  149 1   
   151  146  150 1   
   152  146  151 1   
   153  152  153 1   
   154  152  161 1   
   155  153  154 1   
   156  153  156 1   
   157  153  162 1   
   158  154  155 2   
   159  154  167 1   
   160  156  157 1   
   161  156  163 1   
   162  156  164 1   
   163  157  158 1   
   164  157  165 1   
   165  157  166 1   
   166  158  159 1   
   167  158  160 1   
   168  167  168 1   
   169  167  172 1   
   170  168  169 1   
   171  168  170 1   
   172  168  171 1   
   173  174  175 1   
   174  174  176 1   
@<TRIPOS>SUBSTRUCTURE
     1 MOL         1 TEMP              0 ****  ****    0 ROOT
