@<TRIPOS>MOLECULE
MOL
  176   174     1     0     0
SMALL
resp


@<TRIPOS>ATOM
      1 C1          0.0890    4.3930    6.3260 c3        1 MOL     -0.261865
      2 C2          0.3020    3.6640    4.9950 c         1 MOL      0.673901
      3 O1          1.4170    3.4750    4.4630 o         1 MOL     -0.576605
      4 H1          0.7390    5.2670    6.3690 hc        1 MOL      0.073549
      5 H2         -0.9500    4.7110    6.4050 hc        1 MOL      0.073549
      6 H3          0.3290    3.7220    7.1510 hc        1 MOL      0.073549
      7 N1         -0.8060    3.3540    4.2740 n         1 MOL     -0.497874
      8 C3         -0.9040    2.8820    2.8800 c3        1 MOL      0.031487
      9 C4         -1.1660    4.0890    1.9040 c         1 MOL      0.670845
     10 O2         -1.9450    4.9890    2.2050 o         1 MOL     -0.575053
     11 C5         -1.9920    1.8310    2.8870 c3        1 MOL     -0.311913
     12 C6         -2.2420    1.1790    1.4890 c         1 MOL      0.623269
     13 O3         -1.9290    1.8260    0.4560 o         1 MOL     -0.644934
     14 O4         -2.7290    0.0660    1.4170 o         1 MOL     -0.644934
     15 H4         -1.6990    3.4150    4.7360 hn        1 MOL      0.285947
     16 H5         -0.0410    2.3770    2.4390 h1        1 MOL      0.029742
     17 H6         -2.9610    2.2180    3.2240 hc        1 MOL      0.098568
     18 H7         -1.6460    1.1010    3.6180 hc        1 MOL      0.098568
     19 N2         -0.3540    4.2480    0.8390 n         1 MOL     -0.438989
     20 C7         -0.4970    5.3450   -0.1280 c3        1 MOL     -0.039846
     21 C8         -1.6510    5.2800   -1.0870 c         1 MOL      0.513079
     22 O5         -1.7640    6.2510   -1.8560 o         1 MOL     -0.592358
     23 C9          0.9080    5.5030   -0.8520 c3        1 MOL     -0.028313
     24 C10         1.1200    4.6350   -2.1770 c3        1 MOL     -0.051221
     25 C11         2.3720    5.0790   -2.9450 c3        1 MOL      0.018458
     26 C12         2.2100    4.6560   -4.3920 c3        1 MOL      0.153697
     27 N3          3.2000    5.3070   -5.3020 n4        1 MOL     -0.533150
     28 H8          0.4550    3.6390    0.8320 hn        1 MOL      0.290543
     29 H9         -0.5640    6.3050    0.3680 h1        1 MOL      0.119328
     30 H10         1.7180    5.3170   -0.1520 hc        1 MOL      0.032560
     31 H11         0.9610    6.5520   -1.1530 hc        1 MOL      0.032560
     32 H12         0.1930    4.7700   -2.7290 hc        1 MOL      0.055676
     33 H13         1.3250    3.5740   -2.0090 hc        1 MOL      0.055676
     34 H14         3.2990    4.6880   -2.5340 hc        1 MOL      0.010047
     35 H15         2.3150    6.1610   -2.8430 hc        1 MOL      0.010047
     36 H16         1.1820    4.7350   -4.7550 hx        1 MOL      0.059199
     37 H17         2.3850    3.5820   -4.4180 hx        1 MOL      0.059199
     38 H18         4.1490    5.0320   -5.0910 hn        1 MOL      0.364701
     39 H19         2.9620    4.9140   -6.2090 hn        1 MOL      0.364701
     40 H20         3.0720    6.3090   -5.2800 hn        1 MOL      0.364701
     41 N4         -2.4940    4.2980   -0.9690 n         1 MOL     -0.210360
     42 C13        -3.8340    4.3120   -1.6720 c3        1 MOL      0.051432
     43 C14        -5.0260    3.8640   -0.7450 c         1 MOL      0.330845
     44 O6         -6.2110    4.0900   -0.9590 o         1 MOL     -0.509930
     45 C15        -3.8040    3.4300   -2.9360 c3        1 MOL     -0.335589
     46 C16        -3.2620    2.0710   -2.5780 c         1 MOL      0.900781
     47 O7         -2.2140    1.6990   -3.1660 o         1 MOL     -0.806100
     48 O8         -3.8820    1.3990   -1.8090 o         1 MOL     -0.806100
     49 H21        -2.2110    3.5580   -0.3460 hn        1 MOL      0.098932
     50 H22        -4.0330    5.3440   -1.9650 h1        1 MOL      0.116486
     51 H23        -3.1820    3.9840   -3.6280 hc        1 MOL      0.089069
     52 H24        -4.8280    3.3220   -3.3120 hc        1 MOL      0.089069
     53 N5         -4.7120    3.3730    0.4310 n         1 MOL     -0.088506
     54 C17        -5.6400    2.8330    1.4680 c3        1 MOL     -0.184083
     55 C18        -6.4630    1.5390    1.1440 c         1 MOL      0.536579
     56 O9         -7.4690    1.3790    1.7550 o         1 MOL     -0.509311
     57 H25        -3.7290    3.1730    0.5820 hn        1 MOL      0.068630
     58 H26        -6.3740    3.6060    1.6970 h1        1 MOL      0.110984
     59 H27        -5.0060    2.6430    2.3340 h1        1 MOL      0.110984
     60 N6         -6.0880    0.7560    0.0420 n         1 MOL     -0.388413
     61 C19        -6.8830   -0.3630   -0.3910 c3        1 MOL      0.088954
     62 C20        -6.9230   -1.4620    0.7060 c         1 MOL      0.443319
     63 O10        -7.9590   -2.1440    0.8660 o         1 MOL     -0.575198
     64 C21        -6.3620   -0.8230   -1.7640 c3        1 MOL     -0.360794
     65 C22        -5.0650   -1.6910   -1.7070 c         1 MOL      0.700859
     66 N7         -5.1060   -2.8580   -2.2590 n         1 MOL     -0.738826
     67 O11        -4.1110   -1.4940   -0.9660 o         1 MOL     -0.620702
     68 H28        -5.2450    0.9910   -0.4610 hn        1 MOL      0.384112
     69 H29        -7.9270   -0.0660   -0.3950 h1        1 MOL      0.088135
     70 H30        -6.1280    0.0410   -2.3890 hc        1 MOL      0.118629
     71 H31        -7.1890   -1.4010   -2.1800 hc        1 MOL      0.118629
     72 H32        -5.9630   -3.1600   -2.7000 hn        1 MOL      0.341635
     73 H33        -4.3530   -3.4970   -2.0860 hn        1 MOL      0.341635
     74 N8         -5.8800   -1.6920    1.4010 n         1 MOL     -0.120035
     75 C23        -5.7480   -2.7220    2.5110 c3        1 MOL     -0.180699
     76 C24        -4.5170   -3.5590    2.5010 c         1 MOL      0.526691
     77 O12        -4.4100   -4.4400    3.3280 o         1 MOL     -0.546988
     78 H34        -5.0390   -1.2320    1.1100 hn        1 MOL      0.083993
     79 H35        -6.6250   -3.3630    2.4940 h1        1 MOL      0.125091
     80 H36        -5.6830   -2.2290    3.4830 h1        1 MOL      0.125091
     81 N9         -3.4700   -3.1700    1.7310 n         1 MOL     -0.285964
     82 C25        -2.1690   -3.8050    1.6690 c3        1 MOL     -0.021994
     83 C26        -1.0150   -3.0310    1.0690 c         1 MOL      0.566293
     84 O13        -1.2950   -2.3030    0.0780 o         1 MOL     -0.557051
     85 C27        -2.3800   -5.1170    0.9240 c3        1 MOL     -0.133521
     86 C28        -3.1270   -5.1880   -0.4340 ca        1 MOL      0.002443
     87 C29        -2.4140   -4.8170   -1.6230 ca        1 MOL     -0.112837
     88 C30        -4.3830   -5.8460   -0.5780 ca        1 MOL     -0.112837
     89 C31        -2.9740   -5.0590   -2.8770 ca        1 MOL     -0.316460
     90 C32        -4.9590   -6.0590   -1.8550 ca        1 MOL     -0.316460
     91 C33        -4.2370   -5.6120   -2.9800 ca        1 MOL      0.399509
     92 O14        -4.8900   -5.6910   -4.1540 oh        1 MOL     -0.534399
     93 H37        -3.6240   -2.4050    1.0810 hn        1 MOL      0.212001
     94 H38        -1.9580   -4.0860    2.6970 h1        1 MOL      0.092631
     95 H39        -2.8300   -5.8240    1.6280 hc        1 MOL      0.073542
     96 H40        -1.3750   -5.5120    0.7790 hc        1 MOL      0.073542
     97 H41        -1.4390   -4.3720   -1.5790 ha        1 MOL      0.150909
     98 H42        -4.8770   -6.1390    0.3340 ha        1 MOL      0.150909
     99 H43        -2.4220   -4.7380   -3.7460 ha        1 MOL      0.158438
    100 H44        -5.9760   -6.4310   -1.9030 ha        1 MOL      0.158438
    101 H45        -5.7340   -6.1210   -4.0030 ho        1 MOL      0.388714
    102 N10         0.2400   -3.2690    1.6120 n         1 MOL     -0.436238
    103 C34         1.3940   -2.4810    1.2250 c3        1 MOL      0.033050
    104 C35         2.6040   -3.4620    0.9540 c         1 MOL      0.451011
    105 O15         2.6980   -4.5440    1.5690 o         1 MOL     -0.505104
    106 C36         1.7550   -1.4060    2.2900 c3        1 MOL      0.141841
    107 C37         1.9410   -2.0000    3.6890 c3        1 MOL     -0.298771
    108 C38         0.6490   -0.3170    2.4060 c3        1 MOL     -0.320465
    109 C39         2.7740   -1.0670    4.6010 c3        1 MOL      0.074996
    110 H46         0.2950   -3.9470    2.3570 hn        1 MOL      0.275943
    111 H47         1.2300   -2.0040    0.2580 h1        1 MOL      0.089771
    112 H48         2.6420   -0.8430    2.0180 hc        1 MOL     -0.025566
    113 H49         2.4150   -2.9500    3.4750 hc        1 MOL      0.085233
    114 H50         0.9710   -2.1890    4.1540 hc        1 MOL      0.085233
    115 H51         0.5160    0.2210    1.4650 hc        1 MOL      0.106842
    116 H52        -0.2420   -0.9370    2.5870 hc        1 MOL      0.106842
    117 H53         0.7970    0.3650    3.2540 hc        1 MOL      0.106842
    118 H54         3.6770   -0.9830    3.9960 hc        1 MOL     -0.005387
    119 H55         2.3530   -0.0550    4.6390 hc        1 MOL     -0.005387
    120 H56         2.9800   -1.4430    5.5960 hc        1 MOL     -0.005387
    121 N11         3.5110   -3.0840    0.0200 n         1 MOL     -0.247866
    122 C40         4.7990   -3.7650   -0.2780 c3        1 MOL      0.075246
    123 C41         5.9680   -3.0490    0.4280 c         1 MOL      0.410773
    124 O16         5.7520   -2.1100    1.2100 o         1 MOL     -0.372737
    125 C42         5.0840   -3.6840   -1.8270 c3        1 MOL     -0.450335
    126 O17         5.0050   -2.4040   -2.2950 oh        1 MOL     -0.272935
    127 H57         3.3140   -2.3630   -0.6680 hn        1 MOL      0.170514
    128 H58         4.8390   -4.7870    0.0910 h1        1 MOL      0.088429
    129 H59         4.2590   -4.2150   -2.2990 h1        1 MOL      0.174886
    130 H60         6.0030   -4.1200   -2.2170 h1        1 MOL      0.174886
    131 H61         4.7380   -2.3540   -3.2150 ho        1 MOL      0.368535
    132 N12         7.2270   -3.3690    0.1450 n         1 MOL     -0.437925
    133 C43         8.3920   -2.7010    0.6510 c3        1 MOL      0.227736
    134 C44         8.4070   -1.3090    0.0240 c         1 MOL      0.379693
    135 O18         8.6260   -0.3000    0.7130 o         1 MOL     -0.494378
    136 C45         9.6550   -3.5310    0.4450 c3        1 MOL     -0.242290
    137 H62         7.3260   -4.1160   -0.5280 hn        1 MOL      0.263809
    138 H63         8.2580   -2.5580    1.7210 h1        1 MOL      0.054726
    139 H64         9.4730   -4.5550    0.7820 hc        1 MOL      0.076018
    140 H65         9.9630   -3.5460   -0.6000 hc        1 MOL      0.076018
    141 H66        10.4440   -3.0160    0.9990 hc        1 MOL      0.076018
    142 N13         8.1910   -1.1870   -1.2600 n         1 MOL     -0.286317
    143 C46         8.0420    0.1290   -1.9520 c3        1 MOL      0.012114
    144 C47         6.9320    1.0250   -1.3430 c         1 MOL      0.348215
    145 O19         7.1480    2.2220   -1.1960 o         1 MOL     -0.491052
    146 C48         7.8570   -0.1680   -3.4170 c3        1 MOL     -0.164470
    147 H67         8.1310   -2.0140   -1.8410 hn        1 MOL      0.215570
    148 H68         9.0010    0.6280   -1.8270 h1        1 MOL      0.110200
    149 H69         8.7370   -0.6990   -3.7780 hc        1 MOL      0.047544
    150 H70         6.9450   -0.7550   -3.5620 hc        1 MOL      0.047544
    151 H71         7.8960    0.7020   -4.0820 hc        1 MOL      0.047544
    152 N14         5.8200    0.4380   -0.9080 n         1 MOL     -0.036070
    153 C49         4.8580    1.2720   -0.1790 c3        1 MOL     -0.104226
    154 C50         5.2630    1.6810    1.2620 c         1 MOL      0.438731
    155 O20         5.1250    2.8620    1.5930 o         1 MOL     -0.533315
    156 C51         3.4320    0.6600   -0.2220 c3        1 MOL      0.172136
    157 C52         2.7640    0.7880   -1.6280 c3        1 MOL     -0.289316
    158 C53         1.3400    0.4070   -1.6690 c         1 MOL      0.801598
    159 O21         0.9460   -0.7740   -1.7470 o         1 MOL     -0.753992
    160 O22         0.4250    1.2250   -1.6560 o         1 MOL     -0.753992
    161 H72         5.5620   -0.4540   -1.3130 hn        1 MOL      0.083843
    162 H73         4.7430    2.2350   -0.6600 h1        1 MOL      0.072559
    163 H74         2.7860    1.1070    0.5370 hc        1 MOL      0.000501
    164 H75         3.5210   -0.3760    0.1220 hc        1 MOL      0.000501
    165 H76         3.2760    0.1420   -2.3420 hc        1 MOL      0.014881
    166 H77         2.8530    1.8430   -1.9000 hc        1 MOL      0.014881
    167 N15         5.9280    0.7670    1.9420 n         1 MOL      0.027229
    168 C54         6.5750    1.0860    3.2050 c3        1 MOL     -0.363442
    169 H78         7.6490    1.1850    3.0480 h1        1 MOL      0.123574
    170 H79         6.1760    2.0240    3.5910 h1        1 MOL      0.123574
    171 H80         6.3860    0.2870    3.9220 h1        1 MOL      0.123574
    172 H81         6.0130   -0.1540    1.5170 hn        1 MOL      0.079659
    173 Ca1        -1.7740   -0.0580   -1.1980 Ca        1 MOL      1.741305
    174 O23        -1.8130   -1.5140   -3.5200 oh        1 MOL     -0.856000
    175 H82        -1.1170   -1.9550   -4.0000 ho        1 MOL      0.422964
    176 H83        -2.5160   -1.4080   -4.1560 ho        1 MOL      0.422964
@<TRIPOS>BOND
     1    1    2 1   
     2    1    4 1   
     3    1    5 1   
     4    1    6 1   
     5    2    3 2   
     6    2    7 1   
     7    7    8 1   
     8    7   15 1   
     9    8    9 1   
    10    8   11 1   
    11    8   16 1   
    12    9   10 2   
    13    9   19 1   
    14   11   12 1   
    15   11   17 1   
    16   11   18 1   
    17   12   13 1   
    18   12   14 1   
    19   19   20 1   
    20   19   28 1   
    21   20   21 1   
    22   20   23 1   
    23   20   29 1   
    24   21   22 2   
    25   21   41 1   
    26   23   24 1   
    27   23   30 1   
    28   23   31 1   
    29   24   25 1   
    30   24   32 1   
    31   24   33 1   
    32   25   26 1   
    33   25   34 1   
    34   25   35 1   
    35   26   27 1   
    36   26   36 1   
    37   26   37 1   
    38   27   38 1   
    39   27   39 1   
    40   27   40 1   
    41   41   42 1   
    42   41   49 1   
    43   42   43 1   
    44   42   45 1   
    45   42   50 1   
    46   43   44 2   
    47   43   53 1   
    48   45   46 1   
    49   45   51 1   
    50   45   52 1   
    51   46   47 1   
    52   46   48 1   
    53   53   54 1   
    54   53   57 1   
    55   54   55 1   
    56   54   58 1   
    57   54   59 1   
    58   55   56 2   
    59   55   60 1   
    60   60   61 1   
    61   60   68 1   
    62   61   62 1   
    63   61   64 1   
    64   61   69 1   
    65   62   63 2   
    66   62   74 1   
    67   64   65 1   
    68   64   70 1   
    69   64   71 1   
    70   65   66 1   
    71   65   67 2   
    72   66   72 1   
    73   66   73 1   
    74   74   75 1   
    75   74   78 1   
    76   75   76 1   
    77   75   79 1   
    78   75   80 1   
    79   76   77 2   
    80   76   81 1   
    81   81   82 1   
    82   81   93 1   
    83   82   83 1   
    84   82   85 1   
    85   82   94 1   
    86   83   84 2   
    87   83  102 1   
    88   85   86 1   
    89   85   95 1   
    90   85   96 1   
    91   86   87 ar  
    92   86   88 ar  
    93   87   89 ar  
    94   87   97 1   
    95   88   90 ar  
    96   88   98 1   
    97   89   91 ar  
    98   89   99 1   
    99   90   91 ar  
   100   90  100 1   
   101   91   92 1   
   102   92  101 1   
   103  102  103 1   
   104  102  110 1   
   105  103  104 1   
   106  103  106 1   
   107  103  111 1   
   108  104  105 2   
   109  104  121 1   
   110  106  107 1   
   111  106  108 1   
   112  106  112 1   
   113  107  109 1   
   114  107  113 1   
   115  107  114 1   
   116  108  115 1   
   117  108  116 1   
   118  108  117 1   
   119  109  118 1   
   120  109  119 1   
   121  109  120 1   
   122  121  122 1   
   123  121  127 1   
   124  122  123 1   
   125  122  125 1   
   126  122  128 1   
   127  123  124 2   
   128  123  132 1   
   129  125  126 1   
   130  125  129 1   
   131  125  130 1   
   132  126  131 1   
   133  132  133 1   
   134  132  137 1   
   135  133  134 1   
   136  133  136 1   
   137  133  138 1   
   138  134  135 2   
   139  134  142 1   
   140  136  139 1   
   141  136  140 1   
   142  136  141 1   
   143  142  143 1   
   144  142  147 1   
   145  143  144 1   
   146  143  146 1   
   147  143  148 1   
   148  144  145 2   
   149  144  152 1   
   150  146  149 1   
   151  146  150 1   
   152  146  151 1   
   153  152  153 1   
   154  152  161 1   
   155  153  154 1   
   156  153  156 1   
   157  153  162 1   
   158  154  155 2   
   159  154  167 1   
   160  156  157 1   
   161  156  163 1   
   162  156  164 1   
   163  157  158 1   
   164  157  165 1   
   165  157  166 1   
   166  158  159 1   
   167  158  160 1   
   168  167  168 1   
   169  167  172 1   
   170  168  169 1   
   171  168  170 1   
   172  168  171 1   
   173  174  175 1   
   174  174  176 1   
@<TRIPOS>SUBSTRUCTURE
     1 MOL         1 TEMP              0 ****  ****    0 ROOT
