@<TRIPOS>MOLECULE
MOL
  175   173     1     0     0
SMALL
resp


@<TRIPOS>ATOM
      1 C1          0.7820    4.3810    5.1090 c3        1 MOL     -0.285174
      2 C2          0.1530    4.1140    3.7230 c         1 MOL      0.688994
      3 O1          0.6740    4.5920    2.7280 o         1 MOL     -0.551031
      4 H1          1.5580    5.1400    5.0160 hc        1 MOL      0.067404
      5 H2          0.0130    4.7310    5.7970 hc        1 MOL      0.067404
      6 H3          1.2210    3.4600    5.4940 hc        1 MOL      0.067404
      7 N1         -0.8590    3.2950    3.6710 n         1 MOL     -0.618264
      8 C3         -1.4400    2.8940    2.3930 c3        1 MOL      0.032223
      9 C4         -2.1690    4.0050    1.6010 c         1 MOL      0.732293
     10 O2         -2.8320    4.8940    2.1560 o         1 MOL     -0.612154
     11 C5         -2.5060    1.8130    2.6850 c3        1 MOL     -0.202161
     12 C6         -3.0360    1.0540    1.4680 c         1 MOL      0.784405
     13 O3         -2.3690    1.0740    0.4560 o         1 MOL     -0.743591
     14 O4         -4.2390    0.6120    1.4340 o         1 MOL     -0.743591
     15 H4         -1.3980    3.0500    4.4970 hn        1 MOL      0.336568
     16 H5         -0.7160    2.3800    1.7690 h1        1 MOL      0.178026
     17 H6         -3.3620    2.2980    3.1660 hc        1 MOL      0.036956
     18 H7         -2.1300    1.1030    3.4220 hc        1 MOL      0.036956
     19 N2         -2.1000    3.8790    0.2830 n         1 MOL     -0.779456
     20 C7         -2.4180    5.0140   -0.6200 c3        1 MOL      0.428444
     21 C8         -3.7210    4.8010   -1.4210 c         1 MOL      0.361636
     22 O5         -4.2260    5.7570   -2.0250 o         1 MOL     -0.564916
     23 C9         -1.1670    5.2290   -1.4220 c3        1 MOL     -0.413012
     24 H8         -1.7160    3.0370   -0.1070 hn        1 MOL      0.493327
     25 H9         -2.6230    5.9060   -0.0300 h1        1 MOL      0.015707
     26 H10        -0.3700    5.6650   -0.8250 hc        1 MOL      0.102768
     27 H11        -0.9440    4.2890   -1.9300 hc        1 MOL      0.102768
     28 H12        -1.4280    5.9550   -2.1890 hc        1 MOL      0.102768
     29 N3         -4.2440    3.5820   -1.4950 n         1 MOL     -0.316535
     30 C10        -5.3490    3.1700   -2.3600 c3        1 MOL      0.371673
     31 C11        -6.4300    2.5220   -1.5210 c         1 MOL      0.243993
     32 O6         -7.4880    2.1790   -2.0570 o         1 MOL     -0.520554
     33 C12        -4.9940    2.1330   -3.4460 c3        1 MOL     -0.321554
     34 C13        -4.2540    0.9640   -2.8750 c         1 MOL      0.977123
     35 O7         -3.0010    0.9360   -2.8560 o         1 MOL     -0.804459
     36 O8         -4.9710    0.0660   -2.4290 o         1 MOL     -0.804459
     37 H13        -3.7000    2.8120   -1.1500 hn        1 MOL      0.168915
     38 H14        -5.8080    4.0130   -2.8760 h1        1 MOL      0.045482
     39 H15        -4.3300    2.6310   -4.1520 hc        1 MOL      0.052896
     40 H16        -5.9110    1.8730   -3.9610 hc        1 MOL      0.052896
     41 N4         -6.2730    2.3420   -0.1960 n         1 MOL     -0.308716
     42 C14        -7.4420    1.9910    0.7150 c3        1 MOL     -0.000699
     43 C15        -7.7280    0.5390    0.7240 c         1 MOL      0.363594
     44 O9         -8.5200    0.0700    1.5780 o         1 MOL     -0.593431
     45 H17        -5.4050    2.6310    0.2290 hn        1 MOL      0.221032
     46 H18        -8.3080    2.5730    0.3770 h1        1 MOL      0.095186
     47 H19        -7.3060    2.4450    1.6950 h1        1 MOL      0.095186
     48 N5         -7.1500   -0.3670   -0.1090 n         1 MOL     -0.048329
     49 C16        -7.6080   -1.7260   -0.1220 c3        1 MOL      0.078329
     50 C17        -7.0000   -2.5590    1.0000 c         1 MOL      0.340976
     51 O10        -7.2980   -3.7270    0.9830 o         1 MOL     -0.500973
     52 C18        -7.4050   -2.3340   -1.4720 c3        1 MOL     -0.384611
     53 C19        -8.1460   -1.6020   -2.6680 c         1 MOL      0.644858
     54 N6         -7.5100   -0.6390   -3.2390 n         1 MOL     -0.774866
     55 O11        -9.2890   -1.8850   -2.9780 o         1 MOL     -0.601290
     56 H20        -6.5810    0.0180   -0.8490 hn        1 MOL      0.200465
     57 H21        -8.6830   -1.6680    0.0720 h1        1 MOL      0.100330
     58 H22        -7.7490   -3.3680   -1.4720 hc        1 MOL      0.120522
     59 H23        -6.3340   -2.3300   -1.6690 hc        1 MOL      0.120522
     60 H24        -6.5740   -0.4450   -2.9260 hn        1 MOL      0.367795
     61 H25        -8.0230   -0.0640   -3.8990 hn        1 MOL      0.367795
     62 N7         -6.1510   -1.9390    1.8320 n         1 MOL     -0.098606
     63 C20        -5.4920   -2.5560    3.0270 c3        1 MOL     -0.276544
     64 C21        -4.4670   -3.5270    2.6390 c         1 MOL      0.645246
     65 O12        -4.3300   -4.5280    3.3090 o         1 MOL     -0.583342
     66 H26        -6.0410   -0.9370    1.7340 hn        1 MOL      0.184439
     67 H27        -6.3000   -2.9540    3.6380 h1        1 MOL      0.118907
     68 H28        -4.9440   -1.7770    3.5480 h1        1 MOL      0.118907
     69 N8         -3.6450   -3.2560    1.5880 n         1 MOL     -0.422650
     70 C22        -2.4390   -4.0300    1.1980 c3        1 MOL      0.008955
     71 C23        -1.2220   -3.1210    1.1530 c         1 MOL      0.477319
     72 O13        -1.2290   -2.1110    0.4280 o         1 MOL     -0.605131
     73 C24        -2.4950   -4.6870   -0.2080 c3        1 MOL      0.373659
     74 C25        -1.3670   -5.5510   -0.7550 c3        1 MOL     -0.347979
     75 O14        -3.5450   -5.6200   -0.0170 oh        1 MOL     -0.586472
     76 H29        -3.8320   -2.4110    1.0730 hn        1 MOL      0.228335
     77 H30        -2.3260   -4.8110    1.9450 h1        1 MOL      0.090122
     78 H31        -2.8310   -3.9680   -0.9490 h1        1 MOL      0.024052
     79 H32        -4.2150   -5.3590   -0.6540 ho        1 MOL      0.359335
     80 H33        -1.0150   -6.1640    0.0680 hc        1 MOL      0.086626
     81 H34        -1.7490   -6.2170   -1.5310 hc        1 MOL      0.086626
     82 H35        -0.5750   -4.9020   -1.1240 hc        1 MOL      0.086626
     83 N9         -0.1200   -3.5590    1.6970 n         1 MOL     -0.398689
     84 C26         1.1560   -2.8120    1.7390 c3        1 MOL      0.021896
     85 C27         2.0140   -3.1260    0.5250 c         1 MOL      0.445125
     86 O15         2.5770   -4.2060    0.3880 o         1 MOL     -0.580422
     87 C28         1.9920   -3.2040    3.0270 c3        1 MOL     -0.121963
     88 C29         1.3740   -2.7430    4.3070 c3        1 MOL     -0.046193
     89 C30         3.5110   -2.8630    3.0880 c3        1 MOL      0.059872
     90 C31         1.0660   -1.2330    4.3160 c3        1 MOL     -0.180329
     91 H36        -0.1010   -4.5320    1.9920 hn        1 MOL      0.280829
     92 H37         1.0240   -1.7340    1.8030 h1        1 MOL      0.262217
     93 H38         1.9890   -4.2940    3.1260 hc        1 MOL      0.040677
     94 H39         2.0170   -3.0020    5.1430 hc        1 MOL      0.034285
     95 H40         0.4510   -3.3170    4.4510 hc        1 MOL      0.034285
     96 H41         3.6480   -1.7850    3.1450 hc        1 MOL     -0.020982
     97 H42         4.0890   -3.3210    3.8860 hc        1 MOL     -0.020982
     98 H43         4.0770   -2.9810    2.1620 hc        1 MOL     -0.020982
     99 H44         0.2180   -1.0030    3.6790 hc        1 MOL      0.044092
    100 H45         0.8290   -1.0720    5.3710 hc        1 MOL      0.044092
    101 H46         1.8640   -0.5940    3.9570 hc        1 MOL      0.044092
    102 N10         2.3040   -2.1170   -0.2800 n         1 MOL     -0.159764
    103 C32         3.3080   -2.0400   -1.2850 c3        1 MOL      0.201790
    104 C33         4.6260   -1.3910   -0.7640 c         1 MOL      0.380330
    105 O16         4.6260   -0.7530    0.3240 o         1 MOL     -0.279036
    106 C34         2.8220   -1.3210   -2.5360 c3        1 MOL     -0.031089
    107 C35         1.5900   -1.9090   -3.1120 c         1 MOL      0.593978
    108 O17         0.5420   -1.4890   -2.6350 o         1 MOL     -0.678357
    109 O18         1.6650   -2.6010   -4.1470 o         1 MOL     -0.678357
    110 H47         1.8060   -1.2490   -0.1290 hn        1 MOL      0.046939
    111 H48         3.5930   -3.0600   -1.5220 h1        1 MOL      0.009078
    112 H49         3.5630   -1.5530   -3.2910 hc        1 MOL     -0.009120
    113 H50         2.8330   -0.2410   -2.4350 hc        1 MOL     -0.009120
    114 N11         5.7110   -1.6880   -1.4520 n         1 MOL     -0.685130
    115 C36         7.0680   -1.2330   -1.1000 c3        1 MOL      0.660434
    116 C37         7.2340    0.3030   -0.9370 c         1 MOL      0.156777
    117 O19         7.9590    0.7300    0.0030 o         1 MOL     -0.485993
    118 C38         8.1060   -1.8460   -2.0370 c3        1 MOL     -0.325847
    119 C39         9.5500   -1.7730   -1.5390 ca        1 MOL      0.270289
    120 C40        10.0040   -2.3450   -0.3730 ca        1 MOL     -0.287804
    121 C41        10.4580   -1.1030   -2.3940 ca        1 MOL     -0.287804
    122 C42        11.3840   -2.2950   -0.0420 ca        1 MOL     -0.023251
    123 C43        11.7770   -0.8620   -2.0140 ca        1 MOL     -0.023251
    124 C44        12.2040   -1.4820   -0.8350 ca        1 MOL     -0.189316
    125 H51         5.5760   -2.3280   -2.2190 hn        1 MOL      0.323143
    126 H52         7.2400   -1.6630   -0.1120 h1        1 MOL     -0.011091
    127 H53         7.9970   -1.5950   -3.0870 hc        1 MOL      0.068131
    128 H54         7.9180   -2.9070   -1.9190 hc        1 MOL      0.068131
    129 H55         9.2830   -2.8360    0.2680 ha        1 MOL      0.139986
    130 H56        10.0340   -0.5580   -3.2200 ha        1 MOL      0.139986
    131 H57        11.7590   -2.8720    0.7810 ha        1 MOL      0.100878
    132 H58        12.4950   -0.2810   -2.5760 ha        1 MOL      0.100878
    133 H59        13.2240   -1.2480   -0.5640 ha        1 MOL      0.104859
    134 N12         6.5690    1.2030   -1.7470 n         1 MOL     -0.069391
    135 C45         6.4720    2.6880   -1.5010 c3        1 MOL      0.181929
    136 C46         5.8370    2.9490   -0.0950 c         1 MOL      0.228559
    137 O20         6.1580    4.0040    0.4620 o         1 MOL     -0.503950
    138 C47         5.7510    3.3320   -2.6660 c3        1 MOL     -0.179194
    139 C48         6.0060    2.2920   -3.7920 c3        1 MOL      0.118599
    140 C49         5.9230    0.9310   -3.0330 c3        1 MOL     -0.236747
    141 H60         7.4940    3.0790   -1.5170 h1        1 MOL      0.042892
    142 H61         4.7000    3.2910   -2.3780 hc        1 MOL      0.069198
    143 H62         6.1760    4.3150   -2.8700 hc        1 MOL      0.069198
    144 H63         5.3170    2.3860   -4.6220 hc        1 MOL     -0.002716
    145 H64         6.9820    2.3370   -4.2560 hc        1 MOL     -0.002716
    146 H65         4.8510    0.7130   -2.9790 h1        1 MOL      0.097303
    147 H66         6.4610    0.1470   -3.5630 h1        1 MOL      0.097303
    148 N13         4.9070    2.1440    0.4270 n         1 MOL      0.026559
    149 C50         4.1680    2.3110    1.6630 c3        1 MOL     -0.062270
    150 C51         4.8870    1.6870    2.8070 c         1 MOL      0.456196
    151 O21         4.9450    2.2460    3.8810 o         1 MOL     -0.586142
    152 C52         2.7620    1.6780    1.5420 c3        1 MOL     -0.012833
    153 C53         1.9990    2.2210    0.3130 c3        1 MOL      0.164835
    154 C54         0.8710    1.3900   -0.2810 c         1 MOL      0.786582
    155 O22         0.7230    0.1830   -0.0290 o         1 MOL     -0.871078
    156 O23        -0.0920    1.9520   -0.9020 o         1 MOL     -0.871078
    157 H67         4.5360    1.3230   -0.0240 hn        1 MOL      0.105446
    158 H68         4.0500    3.3690    1.9050 h1        1 MOL      0.080518
    159 H69         2.0130    1.9290    2.2880 hc        1 MOL     -0.006336
    160 H70         2.9080    0.6150    1.3760 hc        1 MOL     -0.006336
    161 H71         2.5920    2.5090   -0.5450 hc        1 MOL     -0.050197
    162 H72         1.5100    3.1310    0.6700 hc        1 MOL     -0.050197
    163 N14         5.6230    0.6580    2.6060 n         1 MOL      0.038891
    164 C55         6.7020    0.3050    3.5660 c3        1 MOL     -0.379924
    165 H73         7.5620    0.9530    3.3990 h1        1 MOL      0.127569
    166 H74         6.3410    0.4370    4.5850 h1        1 MOL      0.127569
    167 H75         6.9960   -0.7350    3.4150 h1        1 MOL      0.127569
    168 H76         5.4760    0.2010    1.7140 hn        1 MOL     -0.015677
    169 Ca1        -1.3980   -0.3270   -1.4190 Ca        1 MOL      1.798775
    170 O24        -3.9500   -1.2230   -0.5690 oh        1 MOL     -0.931984
    171 H77        -4.4290   -0.8560   -1.3000 ho        1 MOL      0.440710
    172 H78        -4.0090   -0.5650    0.1250 ho        1 MOL      0.440710
    173 O25        -2.5220   -2.0520   -3.1700 oh        1 MOL     -0.931984
    174 H79        -1.9170   -2.5640   -3.7000 ho        1 MOL      0.440710
    175 H80        -3.3860   -2.2800   -3.5150 ho        1 MOL      0.440710
@<TRIPOS>BOND
     1    1    2 1   
     2    1    4 1   
     3    1    5 1   
     4    1    6 1   
     5    2    3 2   
     6    2    7 1   
     7    7    8 1   
     8    7   15 1   
     9    8    9 1   
    10    8   11 1   
    11    8   16 1   
    12    9   10 2   
    13    9   19 1   
    14   11   12 1   
    15   11   17 1   
    16   11   18 1   
    17   12   13 1   
    18   12   14 1   
    19   19   20 1   
    20   19   24 1   
    21   20   21 1   
    22   20   23 1   
    23   20   25 1   
    24   21   22 2   
    25   21   29 1   
    26   23   26 1   
    27   23   27 1   
    28   23   28 1   
    29   29   30 1   
    30   29   37 1   
    31   30   31 1   
    32   30   33 1   
    33   30   38 1   
    34   31   32 2   
    35   31   41 1   
    36   33   34 1   
    37   33   39 1   
    38   33   40 1   
    39   34   35 1   
    40   34   36 1   
    41   41   42 1   
    42   41   45 1   
    43   42   43 1   
    44   42   46 1   
    45   42   47 1   
    46   43   44 2   
    47   43   48 1   
    48   48   49 1   
    49   48   56 1   
    50   49   50 1   
    51   49   52 1   
    52   49   57 1   
    53   50   51 2   
    54   50   62 1   
    55   52   53 1   
    56   52   58 1   
    57   52   59 1   
    58   53   54 1   
    59   53   55 2   
    60   54   60 1   
    61   54   61 1   
    62   62   63 1   
    63   62   66 1   
    64   63   64 1   
    65   63   67 1   
    66   63   68 1   
    67   64   65 2   
    68   64   69 1   
    69   69   70 1   
    70   69   76 1   
    71   70   71 1   
    72   70   73 1   
    73   70   77 1   
    74   71   72 2   
    75   71   83 1   
    76   73   74 1   
    77   73   75 1   
    78   73   78 1   
    79   74   80 1   
    80   74   81 1   
    81   74   82 1   
    82   75   79 1   
    83   83   84 1   
    84   83   91 1   
    85   84   85 1   
    86   84   87 1   
    87   84   92 1   
    88   85   86 2   
    89   85  102 1   
    90   87   88 1   
    91   87   89 1   
    92   87   93 1   
    93   88   90 1   
    94   88   94 1   
    95   88   95 1   
    96   89   96 1   
    97   89   97 1   
    98   89   98 1   
    99   90   99 1   
   100   90  100 1   
   101   90  101 1   
   102  102  103 1   
   103  102  110 1   
   104  103  104 1   
   105  103  106 1   
   106  103  111 1   
   107  104  105 2   
   108  104  114 1   
   109  106  107 1   
   110  106  112 1   
   111  106  113 1   
   112  107  108 1   
   113  107  109 1   
   114  114  115 1   
   115  114  125 1   
   116  115  116 1   
   117  115  118 1   
   118  115  126 1   
   119  116  117 2   
   120  116  134 1   
   121  118  119 1   
   122  118  127 1   
   123  118  128 1   
   124  119  120 ar  
   125  119  121 ar  
   126  120  122 ar  
   127  120  129 1   
   128  121  123 ar  
   129  121  130 1   
   130  122  124 ar  
   131  122  131 1   
   132  123  124 ar  
   133  123  132 1   
   134  124  133 1   
   135  134  135 1   
   136  134  140 1   
   137  135  136 1   
   138  135  138 1   
   139  135  141 1   
   140  136  137 2   
   141  136  148 1   
   142  138  139 1   
   143  138  142 1   
   144  138  143 1   
   145  139  140 1   
   146  139  144 1   
   147  139  145 1   
   148  140  146 1   
   149  140  147 1   
   150  148  149 1   
   151  148  157 1   
   152  149  150 1   
   153  149  152 1   
   154  149  158 1   
   155  150  151 2   
   156  150  163 1   
   157  152  153 1   
   158  152  159 1   
   159  152  160 1   
   160  153  154 1   
   161  153  161 1   
   162  153  162 1   
   163  154  155 1   
   164  154  156 1   
   165  163  164 1   
   166  163  168 1   
   167  164  165 1   
   168  164  166 1   
   169  164  167 1   
   170  170  171 1   
   171  170  172 1   
   172  173  174 1   
   173  173  175 1   
@<TRIPOS>SUBSTRUCTURE
     1 MOL         1 TEMP              0 ****  ****    0 ROOT
