@<TRIPOS>MOLECULE
MOL
  179   176     1     0     0
SMALL
resp


@<TRIPOS>ATOM
      1 C1          1.0160    4.2290    5.0040 c3        1 MOL     -0.268005
      2 C2          0.5800    3.4560    3.7460 c         1 MOL      0.660643
      3 O1          1.4260    3.0740    2.9610 o         1 MOL     -0.553589
      4 H1          0.8960    5.2980    4.8320 hc        1 MOL      0.065185
      5 H2          0.3990    3.9260    5.8490 hc        1 MOL      0.065185
      6 H3          2.0620    4.0110    5.2200 hc        1 MOL      0.065185
      7 N1         -0.7160    3.3310    3.5190 n         1 MOL     -0.631271
      8 C3         -1.3660    2.7790    2.2880 c3        1 MOL     -0.050387
      9 C4         -1.9480    3.9470    1.4690 c         1 MOL      0.585553
     10 O2         -3.1320    4.0620    1.4410 o         1 MOL     -0.461494
     11 C5         -2.4620    1.7530    2.6630 c3        1 MOL     -0.028731
     12 C6         -3.1210    1.0540    1.4730 c         1 MOL      0.765912
     13 O3         -4.1970    0.4510    1.6290 o         1 MOL     -0.754877
     14 O4         -2.5200    0.9610    0.3910 o         1 MOL     -0.754877
     15 H4         -1.3790    3.7780    4.1230 hn        1 MOL      0.358478
     16 H5         -0.6450    2.2840    1.6330 h1        1 MOL      0.055047
     17 H6         -3.2080    2.1590    3.3400 hc        1 MOL      0.027146
     18 H7         -2.0860    0.9130    3.2480 hc        1 MOL      0.027146
     19 N2         -1.2440    4.8300    0.8340 n         1 MOL     -0.490402
     20 C7         -1.6500    6.1330    0.2280 c3        1 MOL     -0.002503
     21 C8         -2.8230    5.9230   -0.8020 c         1 MOL      0.483420
     22 O5         -3.7100    6.7450   -0.9560 o         1 MOL     -0.556103
     23 C9         -0.4770    6.8580   -0.4110 c3        1 MOL     -0.145358
     24 C10         0.4430    7.1970    0.7470 c3        1 MOL      0.106189
     25 C11         1.5870    8.0790    0.2160 c3        1 MOL     -0.040453
     26 C12         2.7750    8.1600    1.2040 c3        1 MOL      0.006926
     27 N3          3.8300    9.0760    0.7060 n4        1 MOL     -0.239763
     28 H8         -0.2770    4.5540    0.7160 hn        1 MOL      0.360131
     29 H9         -2.0820    6.8380    0.9390 h1        1 MOL      0.092884
     30 H10        -0.8000    7.7270   -0.9740 hc        1 MOL      0.076895
     31 H11        -0.0370    6.1130   -1.0730 hc        1 MOL      0.076895
     32 H12         0.8650    6.2800    1.1420 hc        1 MOL     -0.004515
     33 H13        -0.0340    7.7530    1.5580 hc        1 MOL     -0.004515
     34 H14         1.2920    9.1070   -0.0200 hc        1 MOL      0.027865
     35 H15         1.9900    7.7030   -0.7180 hc        1 MOL      0.027865
     36 H16         3.2260    7.2290    1.5420 hx        1 MOL      0.097342
     37 H17         2.4500    8.5960    2.1490 hx        1 MOL      0.097342
     38 H18         4.1680    8.8960   -0.2260 hn        1 MOL      0.293815
     39 H19         3.4940   10.0130    0.5010 hn        1 MOL      0.293815
     40 H20         4.6270    9.3000    1.2790 hn        1 MOL      0.293815
     41 N4         -2.8930    4.7510   -1.4660 n         1 MOL     -0.335786
     42 C13        -3.9330    4.4470   -2.4780 c3        1 MOL     -0.008162
     43 C14        -5.1200    3.7520   -1.8610 c         1 MOL      0.400035
     44 O6         -6.1000    3.6480   -2.5840 o         1 MOL     -0.512027
     45 C15        -3.3300    3.5440   -3.5760 c3        1 MOL     -0.277259
     46 C16        -2.6170    2.2770   -3.0910 c         1 MOL      0.881451
     47 O7         -1.6080    2.4170   -2.4120 o         1 MOL     -0.803508
     48 O8         -3.0450    1.1300   -3.2420 o         1 MOL     -0.803508
     49 H21        -2.2420    4.0480   -1.1530 hn        1 MOL      0.219165
     50 H22        -4.2640    5.3750   -2.9360 h1        1 MOL      0.146366
     51 H23        -2.6520    4.0800   -4.2480 hc        1 MOL      0.071561
     52 H24        -4.1440    3.3310   -4.2680 hc        1 MOL      0.071561
     53 N5         -5.2220    3.3920   -0.5500 n         1 MOL     -0.021527
     54 C17        -6.3530    2.7770    0.0840 c3        1 MOL     -0.158314
     55 C18        -6.8900    1.4230   -0.5150 c         1 MOL      0.523492
     56 O9         -8.0920    1.2700   -0.5700 o         1 MOL     -0.555222
     57 H25        -4.5110    3.6500    0.1270 hn        1 MOL      0.121176
     58 H26        -7.2030    3.4690    0.0360 h1        1 MOL      0.066877
     59 H27        -5.9680    2.5430    1.0730 h1        1 MOL      0.066877
     60 N6         -6.0490    0.5230   -0.9850 n         1 MOL     -0.218209
     61 C19        -6.4270   -0.8150   -1.4500 c3        1 MOL      0.027798
     62 C20        -6.4880   -1.9130   -0.2830 c         1 MOL      0.301576
     63 O10        -7.1540   -2.9520   -0.5640 o         1 MOL     -0.507265
     64 C21        -5.6010   -1.3670   -2.6550 c3        1 MOL     -0.221091
     65 C22        -4.2090   -1.8060   -2.2980 c         1 MOL      0.603952
     66 N7         -3.5560   -2.4790   -3.1880 n         1 MOL     -0.742674
     67 O11        -3.6000   -1.5130   -1.2670 o         1 MOL     -0.474922
     68 H28        -5.0980    0.8530   -0.9190 hn        1 MOL      0.120977
     69 H29        -7.4580   -0.7070   -1.7930 h1        1 MOL      0.098472
     70 H30        -5.6610   -0.6220   -3.4560 hc        1 MOL      0.101479
     71 H31        -6.1680   -2.2380   -2.9920 hc        1 MOL      0.101479
     72 H32        -4.0310   -2.8380   -3.9990 hn        1 MOL      0.338065
     73 H33        -2.6860   -2.9250   -2.9630 hn        1 MOL      0.338065
     74 N8         -5.7920   -1.6400    0.8450 n         1 MOL     -0.094413
     75 C23        -5.7910   -2.5560    2.0170 c3        1 MOL     -0.348003
     76 C24        -4.4270   -3.1510    2.4170 c         1 MOL      0.638342
     77 O12        -4.3580   -3.9530    3.3540 o         1 MOL     -0.597683
     78 H34        -5.2290   -0.7960    0.9090 hn        1 MOL      0.247814
     79 H35        -6.2460   -3.5300    1.8300 h1        1 MOL      0.154575
     80 H36        -6.3510   -2.0830    2.8260 h1        1 MOL      0.154575
     81 N9         -3.4460   -2.8570    1.6450 n         1 MOL     -0.443922
     82 C25        -2.1020   -3.5050    1.4740 c3        1 MOL      0.067646
     83 C26        -0.9440   -2.5110    1.2330 c         1 MOL      0.764668
     84 O13        -1.0970   -1.4920    0.6150 o         1 MOL     -0.733756
     85 C27        -2.2470   -4.6300    0.3950 c3        1 MOL      0.016810
     86 C28        -3.4480   -5.5600    0.4800 ca        1 MOL      0.024880
     87 C29        -4.4920   -5.4020   -0.4620 ca        1 MOL     -0.209500
     88 C30        -3.5480   -6.5030    1.5190 ca        1 MOL     -0.209500
     89 C31        -5.5620   -6.3290   -0.4060 ca        1 MOL     -0.186992
     90 C32        -4.6700   -7.3010    1.6760 ca        1 MOL     -0.186992
     91 C33        -5.6680   -7.2780    0.6840 ca        1 MOL      0.296069
     92 O14        -6.7540   -8.0790    0.7570 oh        1 MOL     -0.510994
     93 H37        -3.6540   -2.3240    0.8190 hn        1 MOL      0.322927
     94 H38        -1.9780   -4.0810    2.3910 h1        1 MOL      0.049973
     95 H39        -1.3530   -5.2590    0.4090 hc        1 MOL     -0.008440
     96 H40        -2.3230   -4.0380   -0.5130 hc        1 MOL     -0.008440
     97 H41        -4.3750   -4.7880   -1.3430 ha        1 MOL      0.151300
     98 H42        -2.7840   -6.5150    2.2840 ha        1 MOL      0.151300
     99 H43        -6.3620   -6.3020   -1.1270 ha        1 MOL      0.135198
    100 H44        -4.7760   -7.9790    2.4990 ha        1 MOL      0.135198
    101 H45        -6.9330   -8.4120    1.6450 ho        1 MOL      0.386746
    102 N10         0.2530   -2.8690    1.6680 n         1 MOL     -0.775120
    103 C34         1.4720   -2.1600    1.5240 c3        1 MOL      0.107017
    104 C35         2.5040   -3.1780    0.9840 c         1 MOL      0.642602
    105 O15         2.6710   -4.2500    1.5740 o         1 MOL     -0.590168
    106 C36         1.9020   -1.6100    2.9200 c3        1 MOL      0.078501
    107 C37         0.9400   -0.5730    3.5130 c3        1 MOL     -0.021053
    108 C38         3.3410   -1.0150    2.8910 c3        1 MOL     -0.109222
    109 C39         1.4060   -0.0230    4.8660 c3        1 MOL     -0.278706
    110 H46         0.3140   -3.7270    2.1860 hn        1 MOL      0.344375
    111 H47         1.3900   -1.3210    0.8310 h1        1 MOL      0.108634
    112 H48         1.9910   -2.4920    3.5510 hc        1 MOL      0.013724
    113 H49        -0.0690   -0.9350    3.7160 hc        1 MOL      0.079747
    114 H50         0.8290    0.2380    2.8000 hc        1 MOL      0.079747
    115 H51         3.3760    0.0120    2.5040 hc        1 MOL      0.009814
    116 H52         3.8240   -1.1270    3.8540 hc        1 MOL      0.009814
    117 H53         4.0200   -1.6170    2.2830 hc        1 MOL      0.009814
    118 H54         2.2930    0.5930    4.7630 hc        1 MOL      0.071131
    119 H55         0.6570    0.6620    5.2700 hc        1 MOL      0.071131
    120 H56         1.4990   -0.7660    5.6650 hc        1 MOL      0.071131
    121 N11         3.1840   -2.8560   -0.0750 n         1 MOL     -0.413319
    122 C40         4.3420   -3.6070   -0.6460 c3        1 MOL      0.044579
    123 C41         5.7060   -3.2610    0.0200 c         1 MOL      0.530933
    124 O16         5.9110   -2.3110    0.7640 o         1 MOL     -0.434957
    125 C42         4.4250   -3.4570   -2.1230 c3        1 MOL     -0.194812
    126 O17         4.7810   -2.2040   -2.6720 oh        1 MOL     -0.387354
    127 H57         2.8780   -2.0590   -0.6210 hn        1 MOL      0.290614
    128 H58         4.1900   -4.6810   -0.5360 h1        1 MOL      0.077608
    129 H59         3.4600   -3.7560   -2.5570 h1        1 MOL      0.097276
    130 H60         5.1520   -4.1410   -2.5480 h1        1 MOL      0.097276
    131 H61         4.3900   -2.1950   -3.5480 ho        1 MOL      0.374918
    132 N12         6.6770   -4.0230   -0.3470 n         1 MOL     -0.522596
    133 C43         8.0020   -3.6760    0.0910 c3        1 MOL      0.244844
    134 C44         8.5470   -2.4100   -0.6780 c         1 MOL      0.429997
    135 O18         9.3820   -1.7200   -0.0410 o         1 MOL     -0.495967
    136 C45         8.8710   -4.9540   -0.1660 c3        1 MOL     -0.390834
    137 H62         6.5650   -4.8350   -0.9290 hn        1 MOL      0.313877
    138 H63         8.0980   -3.3990    1.1370 h1        1 MOL      0.075134
    139 H64         8.8000   -5.2590   -1.2120 hc        1 MOL      0.110724
    140 H65         9.8920   -4.6920    0.1060 hc        1 MOL      0.110724
    141 H66         8.5960   -5.7420    0.5290 hc        1 MOL      0.110724
    142 N13         8.0910   -2.1490   -1.9480 n         1 MOL     -0.451627
    143 C46         8.3390   -0.8840   -2.5920 c3        1 MOL      0.241974
    144 C47         7.6520    0.3350   -1.8260 c         1 MOL      0.241699
    145 O19         8.2030    1.4520   -1.7270 o         1 MOL     -0.477130
    146 C48         7.7470   -0.9390   -4.0390 c3        1 MOL     -0.310102
    147 H67         7.4810   -2.8260   -2.3910 hn        1 MOL      0.290644
    148 H68         9.3960   -0.5980   -2.6580 h1        1 MOL      0.058792
    149 H69         8.1320   -1.8890   -4.4150 hc        1 MOL      0.078098
    150 H70         6.6610   -0.9080   -4.1570 hc        1 MOL      0.078098
    151 H71         8.1380   -0.1130   -4.6320 hc        1 MOL      0.078098
    152 N14         6.4070    0.1130   -1.3250 n         1 MOL      0.205708
    153 C49         5.6750    1.1710   -0.5480 c3        1 MOL     -0.430806
    154 C50         6.3300    1.5030    0.8160 c         1 MOL      0.539041
    155 O20         6.4500    2.6620    1.2270 o         1 MOL     -0.556704
    156 C51         4.1920    0.7600   -0.3290 c3        1 MOL      0.183657
    157 C52         3.3030    0.7890   -1.5880 c3        1 MOL     -0.079408
    158 C53         1.8960    0.2730   -1.4170 c         1 MOL      0.608661
    159 O21         1.6790   -0.9500   -1.6150 o         1 MOL     -0.717913
    160 O22         1.0150    1.0730   -1.0230 o         1 MOL     -0.717913
    161 H72         5.9470   -0.7620   -1.5020 hn        1 MOL     -0.075155
    162 H73         5.6240    2.1220   -1.0730 h1        1 MOL      0.152370
    163 H74         3.7420    1.3240    0.4920 hc        1 MOL      0.034338
    164 H75         4.2310   -0.2660    0.0270 hc        1 MOL      0.034338
    165 H76         3.7660    0.2100   -2.3860 hc        1 MOL     -0.011358
    166 H77         3.2920    1.8370   -1.8620 hc        1 MOL     -0.011358
    167 N15         6.9290    0.4880    1.4850 n         1 MOL     -0.119571
    168 C54         7.6870    0.7100    2.7210 c3        1 MOL     -0.366145
    169 H78         7.2950    1.5880    3.2340 h1        1 MOL      0.133765
    170 H79         7.5920   -0.1620    3.3680 h1        1 MOL      0.133765
    171 H80         8.7380    0.8710    2.4790 h1        1 MOL      0.133765
    172 H81         6.8960   -0.4290    1.0540 hn        1 MOL      0.165359
    173 Ca1        -1.2410   -0.0260   -1.5160 Ca        1 MOL      1.785015
    174 O23        -0.1730    0.0100   -4.0160 oh        1 MOL     -0.800860
    175 H82         0.0790    0.8600   -4.3730 ho        1 MOL      0.403312
    176 H83         0.5100   -0.5900   -4.3140 ho        1 MOL      0.403312
    177 O24        -0.6820   -2.7460   -2.6280 oh        1 MOL     -0.800860
    178 H84         0.0680   -2.6420   -3.2110 ho        1 MOL      0.403312
    179 H85        -0.7120   -3.6850   -2.4530 ho        1 MOL      0.403312
@<TRIPOS>BOND
     1    1    2 1   
     2    1    4 1   
     3    1    5 1   
     4    1    6 1   
     5    2    3 2   
     6    2    7 1   
     7    7    8 1   
     8    7   15 1   
     9    8    9 1   
    10    8   11 1   
    11    8   16 1   
    12    9   10 2   
    13    9   19 1   
    14   11   12 1   
    15   11   17 1   
    16   11   18 1   
    17   12   13 1   
    18   12   14 1   
    19   19   20 1   
    20   19   28 1   
    21   20   21 1   
    22   20   23 1   
    23   20   29 1   
    24   21   22 2   
    25   21   41 1   
    26   23   24 1   
    27   23   30 1   
    28   23   31 1   
    29   24   25 1   
    30   24   32 1   
    31   24   33 1   
    32   25   26 1   
    33   25   34 1   
    34   25   35 1   
    35   26   27 1   
    36   26   36 1   
    37   26   37 1   
    38   27   38 1   
    39   27   39 1   
    40   27   40 1   
    41   41   42 1   
    42   41   49 1   
    43   42   43 1   
    44   42   45 1   
    45   42   50 1   
    46   43   44 2   
    47   43   53 1   
    48   45   46 1   
    49   45   51 1   
    50   45   52 1   
    51   46   47 1   
    52   46   48 1   
    53   53   54 1   
    54   53   57 1   
    55   54   55 1   
    56   54   58 1   
    57   54   59 1   
    58   55   56 2   
    59   55   60 1   
    60   60   61 1   
    61   60   68 1   
    62   61   62 1   
    63   61   64 1   
    64   61   69 1   
    65   62   63 2   
    66   62   74 1   
    67   64   65 1   
    68   64   70 1   
    69   64   71 1   
    70   65   66 1   
    71   65   67 2   
    72   66   72 1   
    73   66   73 1   
    74   74   75 1   
    75   74   78 1   
    76   75   76 1   
    77   75   79 1   
    78   75   80 1   
    79   76   77 2   
    80   76   81 1   
    81   81   82 1   
    82   81   93 1   
    83   82   83 1   
    84   82   85 1   
    85   82   94 1   
    86   83   84 2   
    87   83  102 1   
    88   85   86 1   
    89   85   95 1   
    90   85   96 1   
    91   86   87 ar  
    92   86   88 ar  
    93   87   89 ar  
    94   87   97 1   
    95   88   90 ar  
    96   88   98 1   
    97   89   91 ar  
    98   89   99 1   
    99   90   91 ar  
   100   90  100 1   
   101   91   92 1   
   102   92  101 1   
   103  102  103 1   
   104  102  110 1   
   105  103  104 1   
   106  103  106 1   
   107  103  111 1   
   108  104  105 2   
   109  104  121 1   
   110  106  107 1   
   111  106  108 1   
   112  106  112 1   
   113  107  109 1   
   114  107  113 1   
   115  107  114 1   
   116  108  115 1   
   117  108  116 1   
   118  108  117 1   
   119  109  118 1   
   120  109  119 1   
   121  109  120 1   
   122  121  122 1   
   123  121  127 1   
   124  122  123 1   
   125  122  125 1   
   126  122  128 1   
   127  123  124 2   
   128  123  132 1   
   129  125  126 1   
   130  125  129 1   
   131  125  130 1   
   132  126  131 1   
   133  132  133 1   
   134  132  137 1   
   135  133  134 1   
   136  133  136 1   
   137  133  138 1   
   138  134  135 2   
   139  134  142 1   
   140  136  139 1   
   141  136  140 1   
   142  136  141 1   
   143  142  143 1   
   144  142  147 1   
   145  143  144 1   
   146  143  146 1   
   147  143  148 1   
   148  144  145 2   
   149  144  152 1   
   150  146  149 1   
   151  146  150 1   
   152  146  151 1   
   153  152  153 1   
   154  152  161 1   
   155  153  154 1   
   156  153  156 1   
   157  153  162 1   
   158  154  155 2   
   159  154  167 1   
   160  156  157 1   
   161  156  163 1   
   162  156  164 1   
   163  157  158 1   
   164  157  165 1   
   165  157  166 1   
   166  158  159 1   
   167  158  160 1   
   168  167  168 1   
   169  167  172 1   
   170  168  169 1   
   171  168  170 1   
   172  168  171 1   
   173  174  175 1   
   174  174  176 1   
   175  177  178 1   
   176  177  179 1   
@<TRIPOS>SUBSTRUCTURE
     1 MOL         1 TEMP              0 ****  ****    0 ROOT
