@<TRIPOS>MOLECULE
MOL
  175   173     1     0     0
SMALL
resp


@<TRIPOS>ATOM
      1 C1          0.7750    4.7230    5.2770 c3        1 MOL     -0.304103
      2 C2          0.2370    4.5660    3.8440 c         1 MOL      0.660093
      3 O1          0.9860    4.7400    2.8460 o         1 MOL     -0.539153
      4 H1          0.4280    3.8900    5.8880 hc        1 MOL      0.076860
      5 H2          1.8650    4.7300    5.2580 hc        1 MOL      0.076860
      6 H3          0.4120    5.6600    5.7010 hc        1 MOL      0.076860
      7 N1         -1.0520    4.1450    3.7080 n         1 MOL     -0.584000
      8 C3         -1.6500    3.7730    2.4520 c3        1 MOL      0.100304
      9 C4         -1.7100    4.9250    1.4100 c         1 MOL      0.588128
     10 O2         -1.8790    6.1160    1.7400 o         1 MOL     -0.577706
     11 C5         -3.1090    3.4660    2.6970 c3        1 MOL     -0.386896
     12 C6         -3.8770    2.9200    1.5250 c         1 MOL      0.666791
     13 O3         -3.3970    2.0880    0.7260 o         1 MOL     -0.593910
     14 O4         -4.9880    3.4410    1.3690 o         1 MOL     -0.593910
     15 H4         -1.6200    4.0120    4.5370 hn        1 MOL      0.312320
     16 H5         -1.1340    2.8750    2.1000 h1        1 MOL      0.151189
     17 H6         -3.5980    4.3360    3.1320 hc        1 MOL      0.090404
     18 H7         -3.0440    2.5750    3.3260 hc        1 MOL      0.090404
     19 N2         -1.6720    4.5500    0.1690 n         1 MOL     -0.478109
     20 C7         -1.8770    5.3440   -0.9920 c3        1 MOL      0.459147
     21 C8         -2.9260    4.9100   -2.0440 c         1 MOL      0.363042
     22 O5         -3.0940    5.5810   -3.0870 o         1 MOL     -0.554003
     23 C9         -0.5260    5.4300   -1.7860 c3        1 MOL     -0.417193
     24 H8         -1.4360    3.5850    0.0040 hn        1 MOL      0.239312
     25 H9         -2.2240    6.3330   -0.6890 h1        1 MOL     -0.024672
     26 H10        -0.6810    6.0930   -2.6350 hc        1 MOL      0.101485
     27 H11         0.0900    5.9290   -1.0260 hc        1 MOL      0.101485
     28 H12        -0.3020    4.4310   -2.1440 hc        1 MOL      0.101485
     29 N3         -3.6420    3.8030   -1.7610 n         1 MOL     -0.290960
     30 C10        -4.6430    3.2830   -2.7580 c3        1 MOL      0.033028
     31 C11        -5.8780    2.5470   -2.2910 c         1 MOL      0.303272
     32 O6         -6.7270    2.2240   -3.1960 o         1 MOL     -0.529336
     33 C12        -3.8950    2.4960   -3.8100 c3        1 MOL     -0.159469
     34 C13        -3.1730    1.2680   -3.2180 c         1 MOL      0.732259
     35 O7         -3.4510    0.7990   -2.0820 o         1 MOL     -0.713464
     36 O8         -2.2360    0.7910   -3.9420 o         1 MOL     -0.713464
     37 H13        -3.3420    3.2290   -0.9830 hn        1 MOL      0.194213
     38 H14        -5.0430    4.1720   -3.2530 h1        1 MOL      0.100631
     39 H15        -3.1290    3.1130   -4.2630 hc        1 MOL      0.053059
     40 H16        -4.5330    2.0930   -4.5990 hc        1 MOL      0.053059
     41 N4         -6.0400    2.1920   -1.0200 n         1 MOL     -0.028567
     42 C14        -7.2070    1.3760   -0.5210 c3        1 MOL     -0.195328
     43 C15        -7.3470   -0.0260   -1.1150 c         1 MOL      0.395844
     44 O9         -8.4760   -0.4950   -1.3280 o         1 MOL     -0.570462
     45 H17        -5.2920    2.4320   -0.3920 hn        1 MOL      0.021431
     46 H18        -8.1220    1.9190   -0.7210 h1        1 MOL      0.098248
     47 H19        -7.0560    1.2550    0.5520 h1        1 MOL      0.098248
     48 N5         -6.2760   -0.6340   -1.4910 n         1 MOL      0.002551
     49 C16        -6.3500   -1.9630   -2.0710 c3        1 MOL     -0.101516
     50 C17        -6.6850   -3.1250   -1.0900 c         1 MOL      0.364797
     51 O10        -7.0960   -4.2740   -1.4460 o         1 MOL     -0.518385
     52 C18        -5.1410   -2.3200   -3.0170 c3        1 MOL     -0.309483
     53 C19        -3.8620   -2.3560   -2.1970 c         1 MOL      0.533037
     54 N6         -2.7770   -2.4930   -2.8490 n         1 MOL     -0.618339
     55 O11        -3.8240   -2.2030   -0.9460 o         1 MOL     -0.350002
     56 H20        -5.3940   -0.4040   -1.0530 hn        1 MOL      0.105750
     57 H21        -7.1730   -2.0180   -2.7960 h1        1 MOL      0.139233
     58 H22        -5.1000   -1.6040   -3.8350 hc        1 MOL      0.115740
     59 H23        -5.2940   -3.3400   -3.3740 hc        1 MOL      0.115740
     60 H24        -2.8120   -2.5120   -3.8520 hn        1 MOL      0.342248
     61 H25        -1.8650   -2.6670   -2.4450 hn        1 MOL      0.342248
     62 N7         -6.5360   -2.8570    0.2260 n         1 MOL     -0.225855
     63 C20        -6.6590   -3.6370    1.4290 c3        1 MOL     -0.105283
     64 C21        -5.3590   -4.2640    1.8620 c         1 MOL      0.625320
     65 O12        -5.4340   -5.2020    2.6650 o         1 MOL     -0.621498
     66 H26        -6.1550   -1.9150    0.3040 hn        1 MOL      0.242031
     67 H27        -7.3730   -4.4510    1.3290 h1        1 MOL      0.075346
     68 H28        -6.9800   -2.9450    2.2150 h1        1 MOL      0.075346
     69 N8         -4.1820   -3.8200    1.3740 n         1 MOL     -0.270628
     70 C22        -2.8330   -4.4060    1.7610 c3        1 MOL     -0.200469
     71 C23        -1.7900   -3.3210    1.8470 c         1 MOL      0.554176
     72 O13        -2.0050   -2.3380    1.1770 o         1 MOL     -0.482028
     73 C24        -2.3020   -5.3640    0.6290 c3        1 MOL      0.596340
     74 C25        -2.9060   -6.7160    0.8430 c3        1 MOL     -0.384465
     75 O14        -2.5240   -4.9450   -0.7460 oh        1 MOL     -0.638749
     76 H29        -4.0600   -2.9840    0.8230 hn        1 MOL      0.105157
     77 H30        -2.7360   -5.0130    2.6550 h1        1 MOL      0.095167
     78 H31        -1.2180   -5.4710    0.6430 h1        1 MOL     -0.028837
     79 H32        -2.1820   -4.0580   -0.8880 ho        1 MOL      0.340009
     80 H33        -2.6020   -7.3530    0.0190 hc        1 MOL      0.088326
     81 H34        -2.3370   -7.1170    1.6790 hc        1 MOL      0.088326
     82 H35        -3.9770   -6.6680    1.0540 hc        1 MOL      0.088326
     83 N9         -0.7150   -3.4470    2.6910 n         1 MOL     -0.617807
     84 C26         0.4540   -2.5370    2.5070 c3        1 MOL      0.112878
     85 C27         1.2210   -2.9670    1.2420 c         1 MOL      0.479895
     86 O15         1.4260   -4.1530    1.0520 o         1 MOL     -0.591255
     87 C28         1.3420   -2.4980    3.7810 c3        1 MOL     -0.038000
     88 C29         0.7810   -1.4050    4.7220 c3        1 MOL      0.205708
     89 C30         2.8720   -2.0870    3.5820 c3        1 MOL     -0.164797
     90 C31         1.5040   -1.3210    6.0830 c3        1 MOL     -0.114061
     91 H36        -0.5490   -4.3370    3.1400 hn        1 MOL      0.320032
     92 H37        -0.0180   -1.5940    2.2410 h1        1 MOL     -0.012838
     93 H38         1.2550   -3.4300    4.3240 hc        1 MOL      0.048920
     94 H39        -0.2490   -1.6910    4.9110 hc        1 MOL     -0.056614
     95 H40         0.6330   -0.4250    4.2810 hc        1 MOL     -0.056614
     96 H41         3.3720   -2.6550    2.8040 hc        1 MOL      0.039289
     97 H42         2.9770   -1.0330    3.3580 hc        1 MOL      0.039289
     98 H43         3.4420   -2.3910    4.4760 hc        1 MOL      0.039289
     99 H44         2.3960   -0.6990    6.0870 hc        1 MOL      0.015308
    100 H45         0.7270   -0.9010    6.7270 hc        1 MOL      0.015308
    101 H46         1.7680   -2.3190    6.4350 hc        1 MOL      0.015308
    102 N10         1.6560   -2.0480    0.3990 n         1 MOL     -0.077027
    103 C32         2.5800   -2.2650   -0.6900 c3        1 MOL      0.014201
    104 C33         3.9840   -1.7630   -0.5520 c         1 MOL      0.534957
    105 O16         4.1930   -0.8660    0.2240 o         1 MOL     -0.391460
    106 C34         1.8490   -1.6380   -1.8620 c3        1 MOL     -0.261745
    107 C35         0.3580   -2.0240   -2.0750 c         1 MOL      0.697664
    108 O17        -0.5580   -1.4840   -1.4270 o         1 MOL     -0.684104
    109 O18         0.0680   -2.9300   -2.9320 o         1 MOL     -0.684104
    110 H47         1.3970   -1.0790    0.4550 hn        1 MOL      0.109870
    111 H48         2.6200   -3.3470   -0.8120 h1        1 MOL      0.061576
    112 H49         2.3730   -1.8600   -2.7880 hc        1 MOL      0.078015
    113 H50         1.8090   -0.5510   -1.7940 hc        1 MOL      0.078015
    114 N11         4.9830   -2.1740   -1.3770 n         1 MOL     -0.813492
    115 C36         6.4220   -1.8050   -1.0900 c3        1 MOL      0.550755
    116 C37         6.7540   -0.3200   -1.0180 c         1 MOL      0.278473
    117 O19         7.4370    0.0870   -0.0850 o         1 MOL     -0.499344
    118 C38         7.3790   -2.5940   -1.9730 c3        1 MOL     -0.361753
    119 C39         8.8670   -2.3600   -1.8110 ca        1 MOL      0.263875
    120 C40         9.4430   -2.3050   -0.5430 ca        1 MOL     -0.319266
    121 C41         9.5590   -2.0460   -3.0100 ca        1 MOL     -0.319266
    122 C42        10.8390   -2.1910   -0.4730 ca        1 MOL      0.022645
    123 C43        10.9230   -1.6900   -2.8250 ca        1 MOL      0.022645
    124 C44        11.5670   -1.8840   -1.6250 ca        1 MOL     -0.227153
    125 H51         4.7760   -2.7610   -2.1730 hn        1 MOL      0.369266
    126 H52         6.6390   -2.0980   -0.0650 h1        1 MOL      0.005606
    127 H53         7.0300   -2.3480   -2.9660 hc        1 MOL      0.086860
    128 H54         7.3530   -3.6530   -1.7270 hc        1 MOL      0.086860
    129 H55         8.9130   -2.5990    0.3500 ha        1 MOL      0.161837
    130 H56         9.0200   -1.8860   -3.9270 ha        1 MOL      0.161837
    131 H57        11.4140   -2.3800    0.4190 ha        1 MOL      0.079491
    132 H58        11.4750   -1.3100   -3.6650 ha        1 MOL      0.079491
    133 H59        12.6550   -1.8390   -1.5600 ha        1 MOL      0.112807
    134 N12         6.2670    0.5590   -1.8990 n         1 MOL     -0.007566
    135 C45         6.3930    2.0130   -1.8230 c3        1 MOL     -0.023794
    136 C46         5.7310    2.6850   -0.6300 c         1 MOL      0.318457
    137 O20         5.9150    3.8480   -0.4460 o         1 MOL     -0.517728
    138 C47         5.8920    2.5820   -3.2350 c3        1 MOL     -0.101214
    139 C48         5.9570    1.3500   -4.1900 c3        1 MOL     -0.098386
    140 C49         5.6880    0.2340   -3.1800 c3        1 MOL      0.007193
    141 H60         7.4760    2.0730   -1.7330 h1        1 MOL      0.067453
    142 H61         4.8770    2.9400   -3.1340 hc        1 MOL      0.074785
    143 H62         6.4840    3.4550   -3.5310 hc        1 MOL      0.074785
    144 H63         5.1930    1.4110   -4.9720 hc        1 MOL      0.049603
    145 H64         6.9280    1.1340   -4.6430 hc        1 MOL      0.049603
    146 H65         4.6260    0.1240   -2.9710 h1        1 MOL      0.019821
    147 H66         6.1410   -0.6760   -3.5730 h1        1 MOL      0.019821
    148 N13         4.8780    2.0290    0.0890 n         1 MOL     -0.139349
    149 C50         4.1860    2.4320    1.3130 c3        1 MOL     -0.052138
    150 C51         4.9450    1.8180    2.5340 c         1 MOL      0.531284
    151 O21         5.1080    2.5270    3.4650 o         1 MOL     -0.577833
    152 C52         2.7580    1.9470    1.3360 c3        1 MOL      0.223009
    153 C53         1.9340    2.1340    0.0900 c3        1 MOL     -0.079088
    154 C54         0.5240    1.4810    0.3140 c         1 MOL      0.587089
    155 O22         0.3470    0.3650    0.8720 o         1 MOL     -0.674589
    156 O23        -0.3890    2.0420   -0.2610 o         1 MOL     -0.674589
    157 H67         4.5840    1.1580   -0.3250 hn        1 MOL      0.148231
    158 H68         4.2720    3.5190    1.3340 h1        1 MOL      0.082374
    159 H69         2.2740    2.5750    2.0810 hc        1 MOL     -0.053228
    160 H70         2.8690    0.9390    1.7430 hc        1 MOL     -0.053228
    161 H71         2.3690    1.5540   -0.7300 hc        1 MOL      0.035018
    162 H72         1.9220    3.2020   -0.1360 hc        1 MOL      0.035018
    163 N14         5.4900    0.6340    2.4570 n         1 MOL     -0.177844
    164 C55         6.3650   -0.0160    3.3730 c3        1 MOL     -0.106493
    165 H73         5.8060   -0.7560    3.9470 h1        1 MOL      0.052171
    166 H74         7.1650   -0.5130    2.8230 h1        1 MOL      0.052171
    167 H75         6.7950    0.7200    4.0520 h1        1 MOL      0.052171
    168 H76         5.1470    0.0070    1.7380 hn        1 MOL      0.151265
    169 Ca1        -2.1490   -0.0750   -0.1340 Ca        1 MOL      1.604110
    170 O24        -4.7540   -0.0550    1.1320 oh        1 MOL     -0.826925
    171 H77        -4.3710    0.8190    1.0150 ho        1 MOL      0.398446
    172 H78        -5.1550   -0.0190    1.9970 ho        1 MOL      0.398446
    173 O25        -2.0930   -0.0370    2.6380 oh        1 MOL     -0.826925
    174 H79        -2.2260    0.4600    3.4440 ho        1 MOL      0.398446
    175 H80        -1.7730   -0.8960    2.9260 ho        1 MOL      0.398446
@<TRIPOS>BOND
     1    1    2 1   
     2    1    4 1   
     3    1    5 1   
     4    1    6 1   
     5    2    3 2   
     6    2    7 1   
     7    7    8 1   
     8    7   15 1   
     9    8    9 1   
    10    8   11 1   
    11    8   16 1   
    12    9   10 2   
    13    9   19 1   
    14   11   12 1   
    15   11   17 1   
    16   11   18 1   
    17   12   13 1   
    18   12   14 1   
    19   19   20 1   
    20   19   24 1   
    21   20   21 1   
    22   20   23 1   
    23   20   25 1   
    24   21   22 2   
    25   21   29 1   
    26   23   26 1   
    27   23   27 1   
    28   23   28 1   
    29   29   30 1   
    30   29   37 1   
    31   30   31 1   
    32   30   33 1   
    33   30   38 1   
    34   31   32 2   
    35   31   41 1   
    36   33   34 1   
    37   33   39 1   
    38   33   40 1   
    39   34   35 1   
    40   34   36 1   
    41   41   42 1   
    42   41   45 1   
    43   42   43 1   
    44   42   46 1   
    45   42   47 1   
    46   43   44 2   
    47   43   48 1   
    48   48   49 1   
    49   48   56 1   
    50   49   50 1   
    51   49   52 1   
    52   49   57 1   
    53   50   51 2   
    54   50   62 1   
    55   52   53 1   
    56   52   58 1   
    57   52   59 1   
    58   53   54 1   
    59   53   55 2   
    60   54   60 1   
    61   54   61 1   
    62   62   63 1   
    63   62   66 1   
    64   63   64 1   
    65   63   67 1   
    66   63   68 1   
    67   64   65 2   
    68   64   69 1   
    69   69   70 1   
    70   69   76 1   
    71   70   71 1   
    72   70   73 1   
    73   70   77 1   
    74   71   72 2   
    75   71   83 1   
    76   73   74 1   
    77   73   75 1   
    78   73   78 1   
    79   74   80 1   
    80   74   81 1   
    81   74   82 1   
    82   75   79 1   
    83   83   84 1   
    84   83   91 1   
    85   84   85 1   
    86   84   87 1   
    87   84   92 1   
    88   85   86 2   
    89   85  102 1   
    90   87   88 1   
    91   87   89 1   
    92   87   93 1   
    93   88   90 1   
    94   88   94 1   
    95   88   95 1   
    96   89   96 1   
    97   89   97 1   
    98   89   98 1   
    99   90   99 1   
   100   90  100 1   
   101   90  101 1   
   102  102  103 1   
   103  102  110 1   
   104  103  104 1   
   105  103  106 1   
   106  103  111 1   
   107  104  105 2   
   108  104  114 1   
   109  106  107 1   
   110  106  112 1   
   111  106  113 1   
   112  107  108 1   
   113  107  109 1   
   114  114  115 1   
   115  114  125 1   
   116  115  116 1   
   117  115  118 1   
   118  115  126 1   
   119  116  117 2   
   120  116  134 1   
   121  118  119 1   
   122  118  127 1   
   123  118  128 1   
   124  119  120 ar  
   125  119  121 ar  
   126  120  122 ar  
   127  120  129 1   
   128  121  123 ar  
   129  121  130 1   
   130  122  124 ar  
   131  122  131 1   
   132  123  124 ar  
   133  123  132 1   
   134  124  133 1   
   135  134  135 1   
   136  134  140 1   
   137  135  136 1   
   138  135  138 1   
   139  135  141 1   
   140  136  137 2   
   141  136  148 1   
   142  138  139 1   
   143  138  142 1   
   144  138  143 1   
   145  139  140 1   
   146  139  144 1   
   147  139  145 1   
   148  140  146 1   
   149  140  147 1   
   150  148  149 1   
   151  148  157 1   
   152  149  150 1   
   153  149  152 1   
   154  149  158 1   
   155  150  151 2   
   156  150  163 1   
   157  152  153 1   
   158  152  159 1   
   159  152  160 1   
   160  153  154 1   
   161  153  161 1   
   162  153  162 1   
   163  154  155 1   
   164  154  156 1   
   165  163  164 1   
   166  163  168 1   
   167  164  165 1   
   168  164  166 1   
   169  164  167 1   
   170  170  171 1   
   171  170  172 1   
   172  173  174 1   
   173  173  175 1   
@<TRIPOS>SUBSTRUCTURE
     1 MOL         1 TEMP              0 ****  ****    0 ROOT
