@<TRIPOS>MOLECULE
MOL
  179   176     1     0     0
SMALL
resp


@<TRIPOS>ATOM
      1 C1          1.5830    2.9770    6.3010 c3        1 MOL     -0.293634
      2 C2          1.2250    2.5150    4.8930 c         1 MOL      0.715092
      3 O1          2.1370    2.4130    4.0660 o         1 MOL     -0.557473
      4 H1          1.7370    4.0560    6.3010 hc        1 MOL      0.078706
      5 H2          0.7710    2.7270    6.9840 hc        1 MOL      0.078706
      6 H3          2.4970    2.4800    6.6270 hc        1 MOL      0.078706
      7 N1         -0.1340    2.3240    4.5480 n         1 MOL     -0.670125
      8 C3         -0.5170    2.2870    3.1400 c3        1 MOL      0.122932
      9 C4         -0.2400    3.6390    2.5040 c         1 MOL      0.616669
     10 O2         -0.6350    4.6760    3.0040 o         1 MOL     -0.583837
     11 C5         -1.9910    1.9120    3.0500 c3        1 MOL     -0.187545
     12 C6         -2.5840    1.6570    1.6170 c         1 MOL      0.803611
     13 O3         -3.7190    1.0930    1.5450 o         1 MOL     -0.699146
     14 O4         -1.9130    1.9660    0.6350 o         1 MOL     -0.699146
     15 H4         -0.8130    2.4340    5.2930 hn        1 MOL      0.354133
     16 H5          0.0220    1.5590    2.5250 h1        1 MOL      0.061019
     17 H6         -2.5110    2.7640    3.4900 hc        1 MOL      0.046011
     18 H7         -2.1320    1.0050    3.6400 hc        1 MOL      0.046011
     19 N2          0.5720    3.6860    1.4190 n         1 MOL     -0.273408
     20 C7          1.0870    4.9680    0.7160 c3        1 MOL     -0.136872
     21 C8         -0.0120    5.5790   -0.1900 c         1 MOL      0.505713
     22 O5          0.1010    6.7370   -0.5830 o         1 MOL     -0.563538
     23 C9          2.4120    4.7450    0.0400 c3        1 MOL      0.079995
     24 C10         3.2820    5.9570   -0.1890 c3        1 MOL     -0.052301
     25 C11         4.3900    5.7250   -1.2540 c3        1 MOL     -0.136458
     26 C12         3.9070    5.2530   -2.6100 c3        1 MOL      0.112354
     27 N3          5.0000    5.1260   -3.5900 n4        1 MOL     -0.263729
     28 H8          0.7020    2.8070    0.9300 hn        1 MOL      0.095115
     29 H9          1.3640    5.6220    1.5490 h1        1 MOL      0.112135
     30 H10         2.1960    4.3250   -0.9550 hc        1 MOL      0.043120
     31 H11         2.8890    3.9770    0.6420 hc        1 MOL      0.043120
     32 H12         3.7270    6.1460    0.7800 hc        1 MOL      0.063899
     33 H13         2.7530    6.9030   -0.3490 hc        1 MOL      0.063899
     34 H14         5.1390    4.9780   -0.9890 hc        1 MOL      0.044417
     35 H15         4.9060    6.6920   -1.2780 hc        1 MOL      0.044417
     36 H16         3.2330    6.0050   -3.0050 hx        1 MOL      0.061332
     37 H17         3.4050    4.2930   -2.5670 hx        1 MOL      0.061332
     38 H18         5.5630    5.9640   -3.5650 hn        1 MOL      0.295220
     39 H19         5.6600    4.4110   -3.3060 hn        1 MOL      0.295220
     40 H20         4.7400    5.0130   -4.5640 hn        1 MOL      0.295220
     41 N4         -0.9500    4.7330   -0.5520 n         1 MOL     -0.347675
     42 C13        -2.0640    5.2410   -1.4460 c3        1 MOL      0.126113
     43 C14        -3.4960    4.9610   -0.9300 c         1 MOL      0.381612
     44 O6         -4.4680    5.5640   -1.4360 o         1 MOL     -0.528714
     45 C15        -1.9160    4.7730   -2.8680 c3        1 MOL     -0.285906
     46 C16        -1.8190    3.2350   -2.8620 c         1 MOL      0.768833
     47 O7         -0.7340    2.7660   -3.0390 o         1 MOL     -0.728093
     48 O8         -2.7730    2.4650   -2.4910 o         1 MOL     -0.728093
     49 H21        -0.9110    3.7600   -0.3090 hn        1 MOL      0.272859
     50 H22        -2.0540    6.3400   -1.4400 h1        1 MOL      0.100083
     51 H23        -1.0350    5.2420   -3.3130 hc        1 MOL      0.064033
     52 H24        -2.8040    5.1840   -3.3630 hc        1 MOL      0.064033
     53 N5         -3.7220    4.0980    0.0380 n         1 MOL     -0.131649
     54 C17        -4.9590    3.9830    0.8540 c3        1 MOL     -0.163242
     55 C18        -6.0190    3.0640    0.1940 c         1 MOL      0.524657
     56 O9         -7.2110    3.3290    0.2060 o         1 MOL     -0.561271
     57 H25        -3.0230    3.3750    0.1390 hn        1 MOL      0.026383
     58 H26        -5.2960    5.0200    0.9260 h1        1 MOL      0.109175
     59 H27        -4.7910    3.6190    1.8670 h1        1 MOL      0.109175
     60 N6         -5.5140    1.9810   -0.4720 n         1 MOL     -0.050831
     61 C19        -6.3710    1.0020   -1.1910 c3        1 MOL     -0.119593
     62 C20        -6.6970   -0.1910   -0.3020 c         1 MOL      0.346946
     63 O10        -7.5520   -0.9800   -0.6630 o         1 MOL     -0.463948
     64 C21        -5.7220    0.7120   -2.6050 c3        1 MOL     -0.057663
     65 C22        -4.6970   -0.3680   -2.6240 c         1 MOL      0.578294
     66 N7         -4.5100   -1.1750   -3.6310 n         1 MOL     -0.660811
     67 O11        -3.7790   -0.4600   -1.8310 o         1 MOL     -0.544753
     68 H28        -4.6190    1.7510   -0.0830 hn        1 MOL     -0.020003
     69 H29        -7.3030    1.5270   -1.4020 h1        1 MOL      0.146439
     70 H30        -5.2440    1.6080   -3.0100 hc        1 MOL      0.051239
     71 H31        -6.5210    0.3900   -3.2660 hc        1 MOL      0.051239
     72 H32        -5.1470   -1.2420   -4.4060 hn        1 MOL      0.315692
     73 H33        -3.7250   -1.8130   -3.6780 hn        1 MOL      0.315692
     74 N8         -6.0940   -0.2560    0.8820 n         1 MOL     -0.186797
     75 C23        -6.2420   -1.4050    1.8700 c3        1 MOL     -0.268256
     76 C24        -5.1630   -2.5380    1.6240 c         1 MOL      0.504172
     77 O12        -5.2580   -3.6630    2.1410 o         1 MOL     -0.519828
     78 H34        -5.3160    0.3520    1.0960 hn        1 MOL      0.233616
     79 H35        -7.2410   -1.8310    1.8570 h1        1 MOL      0.145160
     80 H36        -6.0290   -0.9540    2.8340 h1        1 MOL      0.145160
     81 N9         -4.1460   -2.2320    0.8220 n         1 MOL     -0.337641
     82 C25        -3.0090   -3.1350    0.6230 c3        1 MOL      0.582980
     83 C26        -1.6510   -2.4680    0.6550 c         1 MOL      0.103906
     84 O13        -1.4300   -1.2680    0.3940 o         1 MOL     -0.615560
     85 C27        -3.2050   -4.0450   -0.5380 c3        1 MOL     -0.072709
     86 C28        -4.5780   -4.7780   -0.4970 ca        1 MOL      0.131414
     87 C29        -5.7850   -4.1610   -0.7660 ca        1 MOL     -0.321482
     88 C30        -4.6050   -6.0900   -0.1190 ca        1 MOL     -0.321482
     89 C31        -7.0540   -4.8380   -0.6700 ca        1 MOL     -0.056806
     90 C32        -5.7710   -6.7610    0.0250 ca        1 MOL     -0.056806
     91 C33        -7.0280   -6.1930   -0.3170 ca        1 MOL      0.148217
     92 O14        -8.1790   -6.8140    0.0060 oh        1 MOL     -0.432346
     93 H37        -4.1910   -1.3200    0.3800 hn        1 MOL      0.269570
     94 H38        -2.9690   -3.6970    1.5520 h1        1 MOL     -0.070486
     95 H39        -2.3810   -4.7530   -0.6440 hc        1 MOL      0.000161
     96 H40        -3.2040   -3.4260   -1.4300 hc        1 MOL      0.000161
     97 H41        -5.7680   -3.1120   -1.0070 ha        1 MOL      0.133704
     98 H42        -3.6910   -6.5360    0.2390 ha        1 MOL      0.133704
     99 H43        -7.9930   -4.3590   -0.9460 ha        1 MOL      0.105465
    100 H44        -5.7430   -7.7030    0.5560 ha        1 MOL      0.105465
    101 H45        -8.0590   -7.6600    0.4470 ho        1 MOL      0.345946
    102 N10        -0.6780   -3.2150    1.1760 n         1 MOL     -0.232535
    103 C34         0.6880   -2.6500    1.4080 c3        1 MOL     -0.275914
    104 C35         1.6860   -3.5630    0.6690 c         1 MOL      0.476037
    105 O15         2.0000   -4.6650    1.0750 o         1 MOL     -0.530794
    106 C36         0.9660   -2.5680    2.9190 c3        1 MOL      0.278226
    107 C37        -0.0500   -1.7870    3.7650 c3        1 MOL      0.237401
    108 C38         2.3740   -1.9810    3.0400 c3        1 MOL     -0.402486
    109 C39         0.2270   -1.8730    5.3190 c3        1 MOL     -0.276701
    110 H46        -0.8690   -4.1590    1.4740 hn        1 MOL      0.269203
    111 H47         0.8130   -1.6580    0.9770 h1        1 MOL      0.205305
    112 H48         0.9240   -3.5470    3.3890 hc        1 MOL     -0.025637
    113 H49        -1.0490   -2.2310    3.7050 hc        1 MOL     -0.030756
    114 H50        -0.0610   -0.7220    3.5690 hc        1 MOL     -0.030756
    115 H51         3.1440   -2.5910    2.5680 hc        1 MOL      0.088259
    116 H52         2.3170   -0.9410    2.7420 hc        1 MOL      0.088259
    117 H53         2.6480   -1.9170    4.0910 hc        1 MOL      0.088259
    118 H54         1.1670   -1.4610    5.6800 hc        1 MOL      0.052405
    119 H55        -0.5850   -1.3010    5.7660 hc        1 MOL      0.052405
    120 H56         0.1740   -2.9360    5.5860 hc        1 MOL      0.052405
    121 N11         2.2550   -3.1090   -0.4510 n         1 MOL     -0.133412
    122 C40         3.2380   -3.8910   -1.1580 c3        1 MOL     -0.051541
    123 C41         4.5790   -3.8300   -0.5720 c         1 MOL      0.416259
    124 O16         4.8390   -3.0190    0.3280 o         1 MOL     -0.387532
    125 C42         3.3140   -3.3390   -2.5890 c3        1 MOL      0.299481
    126 O17         2.0630   -3.3510   -3.1380 oh        1 MOL     -0.657718
    127 H57         1.9450   -2.2600   -0.9000 hn        1 MOL      0.159012
    128 H58         2.9500   -4.9460   -1.1740 h1        1 MOL      0.049569
    129 H59         4.0190   -3.9700   -3.1370 h1        1 MOL     -0.018064
    130 H60         3.7590   -2.3440   -2.5310 h1        1 MOL     -0.018064
    131 H61         1.8370   -4.2320   -3.4460 ho        1 MOL      0.425536
    132 N12         5.5290   -4.6160   -1.1070 n         1 MOL     -0.362816
    133 C43         6.8990   -4.5380   -0.6050 c3        1 MOL      0.053005
    134 C44         7.5620   -3.1680   -0.8300 c         1 MOL      0.428759
    135 O18         8.2730   -2.6870    0.0330 o         1 MOL     -0.474117
    136 C45         7.8240   -5.6890   -1.1550 c3        1 MOL     -0.256504
    137 H62         5.3230   -5.3800   -1.7440 hn        1 MOL      0.267188
    138 H63         6.9050   -4.7230    0.4680 h1        1 MOL      0.101727
    139 H64         8.7760   -5.6460   -0.6390 hc        1 MOL      0.088629
    140 H65         7.4310   -6.6670   -0.8550 hc        1 MOL      0.088629
    141 H66         8.0180   -5.6970   -2.2300 hc        1 MOL      0.088629
    142 N13         7.2100   -2.4930   -1.9420 n         1 MOL     -0.339973
    143 C46         7.3870   -1.0890   -2.2180 c3        1 MOL      0.138078
    144 C47         6.9850   -0.1510   -1.0820 c         1 MOL      0.355996
    145 O19         7.6780    0.8190   -0.7820 o         1 MOL     -0.511019
    146 C48         6.5560   -0.7550   -3.4820 c3        1 MOL     -0.346506
    147 H67         6.6210   -2.9570   -2.6150 hn        1 MOL      0.199342
    148 H68         8.4280   -0.8180   -2.4270 h1        1 MOL      0.060269
    149 H69         6.8010   -1.3240   -4.3750 hc        1 MOL      0.097988
    150 H70         5.5100   -0.9310   -3.2400 hc        1 MOL      0.097988
    151 H71         6.5680    0.3180   -3.6780 hc        1 MOL      0.097988
    152 N14         5.7820   -0.3690   -0.5300 n         1 MOL      0.011122
    153 C49         5.2850    0.5220    0.5460 c3        1 MOL     -0.374021
    154 C50         5.8970    0.2440    1.9060 c         1 MOL      0.580089
    155 O20         5.9330    1.2310    2.6620 o         1 MOL     -0.551369
    156 C51         3.7350    0.6340    0.4420 c3        1 MOL      0.005259
    157 C52         3.2030    1.1220   -0.8650 c3        1 MOL     -0.011476
    158 C53         1.7390    0.7850   -0.8790 c         1 MOL      0.572511
    159 O21         0.9630    1.6040   -0.4380 o         1 MOL     -0.643505
    160 O22         1.3100   -0.2880   -1.4160 o         1 MOL     -0.643505
    161 H72         5.1820   -1.1540   -0.7180 hn        1 MOL      0.113377
    162 H73         5.6540    1.5050    0.2470 h1        1 MOL      0.134536
    163 H74         3.3530    1.2150    1.2740 hc        1 MOL      0.078802
    164 H75         3.3800   -0.3680    0.6450 hc        1 MOL      0.078802
    165 H76         3.6570    0.7550   -1.7800 hc        1 MOL     -0.021878
    166 H77         3.2980    2.2020   -0.9560 hc        1 MOL     -0.021878
    167 N15         6.2860   -0.9810    2.1650 n         1 MOL     -0.164848
    168 C54         7.0970   -1.1760    3.3720 c3        1 MOL     -0.196250
    169 H78         7.1270   -0.2480    3.9430 h1        1 MOL      0.093659
    170 H79         6.6570   -1.9650    3.9820 h1        1 MOL      0.093659
    171 H80         8.1110   -1.4590    3.0880 h1        1 MOL      0.093659
    172 H81         6.0770   -1.6910    1.4780 hn        1 MOL      0.150406
    173 Ca1        -1.1730    0.4480   -1.5750 Ca        1 MOL      1.787753
    174 O23        -0.8170    0.1900   -4.1810 oh        1 MOL     -0.912965
    175 H82        -0.0180   -0.1060   -4.6200 ho        1 MOL      0.432972
    176 H83        -1.4270    0.3980   -4.8960 ho        1 MOL      0.432972
    177 O24        -0.6470   -2.2760   -2.2940 oh        1 MOL     -0.912965
    178 H84         0.2300   -2.2610   -2.6890 ho        1 MOL      0.432972
    179 H85        -1.0400   -3.0850   -2.6240 ho        1 MOL      0.432972
@<TRIPOS>BOND
     1    1    2 1   
     2    1    4 1   
     3    1    5 1   
     4    1    6 1   
     5    2    3 2   
     6    2    7 1   
     7    7    8 1   
     8    7   15 1   
     9    8    9 1   
    10    8   11 1   
    11    8   16 1   
    12    9   10 2   
    13    9   19 1   
    14   11   12 1   
    15   11   17 1   
    16   11   18 1   
    17   12   13 1   
    18   12   14 1   
    19   19   20 1   
    20   19   28 1   
    21   20   21 1   
    22   20   23 1   
    23   20   29 1   
    24   21   22 2   
    25   21   41 1   
    26   23   24 1   
    27   23   30 1   
    28   23   31 1   
    29   24   25 1   
    30   24   32 1   
    31   24   33 1   
    32   25   26 1   
    33   25   34 1   
    34   25   35 1   
    35   26   27 1   
    36   26   36 1   
    37   26   37 1   
    38   27   38 1   
    39   27   39 1   
    40   27   40 1   
    41   41   42 1   
    42   41   49 1   
    43   42   43 1   
    44   42   45 1   
    45   42   50 1   
    46   43   44 2   
    47   43   53 1   
    48   45   46 1   
    49   45   51 1   
    50   45   52 1   
    51   46   47 1   
    52   46   48 1   
    53   53   54 1   
    54   53   57 1   
    55   54   55 1   
    56   54   58 1   
    57   54   59 1   
    58   55   56 2   
    59   55   60 1   
    60   60   61 1   
    61   60   68 1   
    62   61   62 1   
    63   61   64 1   
    64   61   69 1   
    65   62   63 2   
    66   62   74 1   
    67   64   65 1   
    68   64   70 1   
    69   64   71 1   
    70   65   66 1   
    71   65   67 2   
    72   66   72 1   
    73   66   73 1   
    74   74   75 1   
    75   74   78 1   
    76   75   76 1   
    77   75   79 1   
    78   75   80 1   
    79   76   77 2   
    80   76   81 1   
    81   81   82 1   
    82   81   93 1   
    83   82   83 1   
    84   82   85 1   
    85   82   94 1   
    86   83   84 2   
    87   83  102 1   
    88   85   86 1   
    89   85   95 1   
    90   85   96 1   
    91   86   87 ar  
    92   86   88 ar  
    93   87   89 ar  
    94   87   97 1   
    95   88   90 ar  
    96   88   98 1   
    97   89   91 ar  
    98   89   99 1   
    99   90   91 ar  
   100   90  100 1   
   101   91   92 1   
   102   92  101 1   
   103  102  103 1   
   104  102  110 1   
   105  103  104 1   
   106  103  106 1   
   107  103  111 1   
   108  104  105 2   
   109  104  121 1   
   110  106  107 1   
   111  106  108 1   
   112  106  112 1   
   113  107  109 1   
   114  107  113 1   
   115  107  114 1   
   116  108  115 1   
   117  108  116 1   
   118  108  117 1   
   119  109  118 1   
   120  109  119 1   
   121  109  120 1   
   122  121  122 1   
   123  121  127 1   
   124  122  123 1   
   125  122  125 1   
   126  122  128 1   
   127  123  124 2   
   128  123  132 1   
   129  125  126 1   
   130  125  129 1   
   131  125  130 1   
   132  126  131 1   
   133  132  133 1   
   134  132  137 1   
   135  133  134 1   
   136  133  136 1   
   137  133  138 1   
   138  134  135 2   
   139  134  142 1   
   140  136  139 1   
   141  136  140 1   
   142  136  141 1   
   143  142  143 1   
   144  142  147 1   
   145  143  144 1   
   146  143  146 1   
   147  143  148 1   
   148  144  145 2   
   149  144  152 1   
   150  146  149 1   
   151  146  150 1   
   152  146  151 1   
   153  152  153 1   
   154  152  161 1   
   155  153  154 1   
   156  153  156 1   
   157  153  162 1   
   158  154  155 2   
   159  154  167 1   
   160  156  157 1   
   161  156  163 1   
   162  156  164 1   
   163  157  158 1   
   164  157  165 1   
   165  157  166 1   
   166  158  159 1   
   167  158  160 1   
   168  167  168 1   
   169  167  172 1   
   170  168  169 1   
   171  168  170 1   
   172  168  171 1   
   173  174  175 1   
   174  174  176 1   
   175  177  178 1   
   176  177  179 1   
@<TRIPOS>SUBSTRUCTURE
     1 MOL         1 TEMP              0 ****  ****    0 ROOT
