@<TRIPOS>MOLECULE
MOL
  189   185     1     0     0
SMALL
resp


@<TRIPOS>ATOM
      1 C1          0.3570    1.7960    6.0790 c3        1 MOL     -0.311819
      2 C2         -0.0050    1.6750    4.5980 c         1 MOL      0.808211
      3 O1          0.8050    1.8860    3.7320 o         1 MOL     -0.642685
      4 H1          1.3890    1.4800    6.2270 hc        1 MOL      0.075255
      5 H2          0.2460    2.8320    6.3970 hc        1 MOL      0.075255
      6 H3         -0.3050    1.1610    6.6680 hc        1 MOL      0.075255
      7 N1         -1.2720    1.4870    4.2900 n         1 MOL     -0.644370
      8 C3         -1.8410    1.4680    2.9400 c3        1 MOL      0.061434
      9 C4         -2.2240    2.9090    2.4200 c         1 MOL      0.551233
     10 O2         -2.7520    3.7190    3.1910 o         1 MOL     -0.550095
     11 C5         -3.0620    0.5310    2.9490 c3        1 MOL     -0.234730
     12 C6         -3.8040    0.3300    1.6610 c         1 MOL      0.860147
     13 O3         -3.1950    0.5270    0.6000 o         1 MOL     -0.752241
     14 O4         -4.9500   -0.2380    1.6730 o         1 MOL     -0.752241
     15 H4         -1.9530    1.3150    5.0190 hn        1 MOL      0.335164
     16 H5         -1.1520    0.9900    2.2330 h1        1 MOL      0.074114
     17 H6         -3.8290    0.8820    3.6430 hc        1 MOL      0.059229
     18 H7         -2.6880   -0.4520    3.2580 hc        1 MOL      0.059229
     19 N2         -1.9400    3.3340    1.1300 n         1 MOL     -0.315775
     20 C7         -1.9940    4.7350    0.7080 c3        1 MOL      0.082380
     21 C8         -3.1140    5.0070   -0.2880 c         1 MOL      0.598512
     22 O5         -3.6030    6.1420   -0.2120 o         1 MOL     -0.578265
     23 C9         -0.5630    5.1240    0.1170 c3        1 MOL     -0.126562
     24 C10         0.0960    5.8570    1.2720 c3        1 MOL      0.222846
     25 C11         1.5950    6.2450    1.0100 c3        1 MOL     -0.061079
     26 C12         2.1770    7.1230    2.1930 c3        1 MOL      0.008475
     27 N3          1.9820    6.5410    3.4960 n4        1 MOL     -0.302677
     28 H8         -1.5610    2.6330    0.5170 hn        1 MOL      0.156409
     29 H9         -2.2050    5.3430    1.5790 h1        1 MOL      0.033590
     30 H10        -0.6350    5.7670   -0.7610 hc        1 MOL      0.023176
     31 H11         0.0280    4.2130   -0.0140 hc        1 MOL      0.023176
     32 H12        -0.0710    5.2410    2.1540 hc        1 MOL     -0.043742
     33 H13        -0.4170    6.8040    1.4000 hc        1 MOL     -0.043742
     34 H14         1.7470    6.7640    0.0700 hc        1 MOL      0.040150
     35 H15         2.2310    5.3900    0.8330 hc        1 MOL      0.040150
     36 H16         1.6600    8.0810    2.1540 hx        1 MOL      0.068555
     37 H17         3.2060    7.4020    1.9630 hx        1 MOL      0.068555
     38 H18         2.4590    7.0950    4.2030 hn        1 MOL      0.325009
     39 H19         1.0030    6.6590    3.7400 hn        1 MOL      0.325009
     40 H20         2.3300    5.5970    3.5080 hn        1 MOL      0.325009
     41 N4         -3.5100    3.9780   -1.0780 n         1 MOL     -0.550684
     42 C13        -4.5510    3.9890   -2.0600 c3        1 MOL      0.215630
     43 C14        -5.8160    3.2380   -1.6570 c         1 MOL      0.442845
     44 O6         -6.8430    3.4510   -2.2590 o         1 MOL     -0.548451
     45 C15        -3.9250    3.5660   -3.3580 c3        1 MOL     -0.422696
     46 C16        -3.1290    2.2120   -3.3230 c         1 MOL      0.822768
     47 O7         -2.4050    1.9310   -4.3070 o         1 MOL     -0.726798
     48 O8         -3.2480    1.4150   -2.3540 o         1 MOL     -0.726798
     49 H21        -2.9430    3.1550   -0.9350 hn        1 MOL      0.314373
     50 H22        -4.8900    5.0180   -2.1660 h1        1 MOL      0.069229
     51 H23        -3.3460    4.4140   -3.7360 hc        1 MOL      0.109458
     52 H24        -4.7710    3.4290   -4.0410 hc        1 MOL      0.109458
     53 N5         -5.7690    2.5020   -0.5640 n         1 MOL     -0.178019
     54 C17        -6.9340    1.8560   -0.0090 c3        1 MOL     -0.245237
     55 C18        -7.3680    0.5210   -0.4850 c         1 MOL      0.625247
     56 O9         -8.4470    0.0860   -0.0690 o         1 MOL     -0.570357
     57 H25        -4.8550    2.3330   -0.1620 hn        1 MOL      0.132983
     58 H26        -7.8110    2.4860   -0.1910 h1        1 MOL      0.124081
     59 H27        -6.8570    1.8260    1.0850 h1        1 MOL      0.124081
     60 N6         -6.4670   -0.1980   -1.2460 n         1 MOL     -0.412446
     61 C19        -6.8750   -1.5060   -1.7950 c3        1 MOL      0.083736
     62 C20        -6.9950   -2.6100   -0.6870 c         1 MOL      0.350683
     63 O10        -7.6490   -3.6450   -0.8650 o         1 MOL     -0.534915
     64 C21        -5.9020   -1.8970   -2.9670 c3        1 MOL     -0.331975
     65 C22        -4.4810   -1.7650   -2.5250 c         1 MOL      0.817718
     66 O11        -3.5910   -1.4640   -3.4250 o         1 MOL     -0.740729
     67 O12        -4.0520   -2.1380   -1.3910 o         1 MOL     -0.740729
     68 H28        -5.4840    0.0340   -1.2150 hn        1 MOL      0.240740
     69 H29        -7.8920   -1.3990   -2.1770 h1        1 MOL      0.087186
     70 H30        -6.0620   -1.1720   -3.7570 hc        1 MOL      0.110625
     71 H31        -6.1650   -2.9140   -3.2570 hc        1 MOL      0.110625
     72 N7         -6.3340   -2.4300    0.4710 n         1 MOL     -0.052642
     73 C23        -6.3220   -3.4310    1.5680 c3        1 MOL     -0.172444
     74 C24        -5.0340   -4.2240    1.6590 c         1 MOL      0.538926
     75 O13        -4.9610   -5.2680    2.3720 o         1 MOL     -0.597199
     76 H32        -6.0500   -1.5080    0.7890 hn        1 MOL      0.233632
     77 H33        -7.2390   -4.0090    1.4290 h1        1 MOL      0.088788
     78 H34        -6.4280   -2.9620    2.5440 h1        1 MOL      0.088788
     79 N8         -3.9540   -3.8880    0.9300 n         1 MOL     -0.187374
     80 C25        -2.6340   -4.5440    0.8830 c3        1 MOL     -0.219657
     81 C26        -1.5030   -3.5340    0.9440 c         1 MOL      0.632162
     82 O14        -1.6770   -2.4440    0.3520 o         1 MOL     -0.591585
     83 C27        -2.4760   -5.3300   -0.4240 c3        1 MOL      0.460680
     84 C28        -3.0930   -6.7850   -0.4470 c3        1 MOL     -0.365919
     85 O15        -3.0530   -4.6830   -1.5970 oh        1 MOL     -0.661327
     86 H35        -4.0860   -3.1130    0.3060 hn        1 MOL      0.145521
     87 H36        -2.5130   -5.2370    1.7160 h1        1 MOL      0.106978
     88 H37        -1.4080   -5.4250   -0.6310 h1        1 MOL     -0.030181
     89 H38        -3.2230   -3.7400   -1.5180 ho        1 MOL      0.470043
     90 H39        -2.6150   -7.3360   -1.2570 hc        1 MOL      0.094505
     91 H40        -2.8950   -7.3070    0.4900 hc        1 MOL      0.094505
     92 H41        -4.1610   -6.7150   -0.6530 hc        1 MOL      0.094505
     93 N9         -0.4480   -3.9100    1.7280 n         1 MOL     -0.643792
     94 C29         0.6800   -3.0000    1.9030 c3        1 MOL      0.059298
     95 C30         1.8650   -3.4370    1.0400 c         1 MOL      0.477009
     96 O16         2.3870   -4.5670    1.2810 o         1 MOL     -0.534737
     97 C31         1.0540   -2.8460    3.3990 c3        1 MOL      0.236017
     98 C32        -0.1370   -2.3990    4.3490 c3        1 MOL      0.135225
     99 C33         2.2060   -1.8720    3.6630 c3        1 MOL     -0.254888
    100 C34         0.1280   -2.7450    5.7800 c3        1 MOL     -0.281009
    101 H42        -0.4360   -4.8190    2.1740 hn        1 MOL      0.346308
    102 H43         0.3800   -2.0080    1.5730 h1        1 MOL      0.077165
    103 H44         1.4780   -3.7880    3.7370 hc        1 MOL     -0.028526
    104 H45        -1.0880   -2.8880    4.1400 hc        1 MOL     -0.009590
    105 H46        -0.2680   -1.3190    4.2780 hc        1 MOL     -0.009590
    106 H47         2.7150   -1.9880    4.6210 hc        1 MOL      0.043589
    107 H48         2.9630   -2.0730    2.8970 hc        1 MOL      0.043589
    108 H49         1.8130   -0.8600    3.5820 hc        1 MOL      0.043589
    109 H50        -0.6480   -2.1960    6.3280 hc        1 MOL      0.061661
    110 H51         0.0240   -3.8170    5.9240 hc        1 MOL      0.061661
    111 H52         1.0690   -2.3120    6.1150 hc        1 MOL      0.061661
    112 N10         2.3350   -2.5920    0.0850 n         1 MOL     -0.227345
    113 C35         3.5430   -3.0150   -0.7310 c3        1 MOL     -0.016069
    114 C36         4.9110   -2.7580   -0.1470 c         1 MOL      0.428284
    115 O17         4.9490   -2.1100    0.8650 o         1 MOL     -0.327327
    116 C37         3.5140   -2.4120   -2.1770 c3        1 MOL      0.031653
    117 C38         2.1640   -2.4240   -2.8320 c3        1 MOL     -0.263810
    118 O18         3.9650   -1.0820   -2.0470 oh        1 MOL     -0.291368
    119 H53         1.8650   -1.7630   -0.2320 hn        1 MOL      0.248834
    120 H54         3.4760   -4.0910   -0.8530 h1        1 MOL      0.069201
    121 H55         4.1820   -3.0520   -2.7560 h1        1 MOL      0.040041
    122 H56         3.9740   -0.8240   -2.9660 ho        1 MOL      0.327339
    123 H57         2.2390   -2.4310   -3.9180 hc        1 MOL      0.081873
    124 H58         1.5360   -3.2700   -2.5660 hc        1 MOL      0.081873
    125 H59         1.6300   -1.5490   -2.4780 hc        1 MOL      0.081873
    126 N11         5.9730   -3.1500   -0.8530 n         1 MOL     -0.403169
    127 C39         7.3680   -2.7060   -0.6080 c3        1 MOL     -0.121360
    128 C40         7.5350   -1.1540   -0.5920 c         1 MOL      0.206016
    129 O19         8.0030   -0.5480    0.3750 o         1 MOL     -0.380852
    130 C41         8.3510   -3.3280   -1.5340 c3        1 MOL      0.401876
    131 C42         9.7740   -3.0530   -1.1150 c3        1 MOL     -0.334120
    132 O20         8.2180   -4.7250   -1.6300 oh        1 MOL     -0.570716
    133 H60         5.7720   -3.5590   -1.7580 hn        1 MOL      0.267748
    134 H61         7.6760   -3.1300    0.3450 h1        1 MOL      0.157947
    135 H62         8.0720   -2.8630   -2.4790 h1        1 MOL     -0.051148
    136 H63         7.3360   -4.9210   -1.9540 ho        1 MOL      0.364636
    137 H64         9.9690   -3.2860   -0.0660 hc        1 MOL      0.110695
    138 H65        10.4110   -3.5920   -1.8300 hc        1 MOL      0.110695
    139 H66        10.0950   -2.0200   -1.2780 hc        1 MOL      0.110695
    140 N12         6.9870   -0.4500   -1.6150 n         1 MOL     -0.113235
    141 C43         6.9770    1.0220   -1.6880 c3        1 MOL     -0.141663
    142 C44         6.2790    1.5640   -0.4750 c         1 MOL      0.357475
    143 O21         6.8510    2.3980    0.2160 o         1 MOL     -0.472068
    144 C45         6.2300    1.4510   -2.9890 c3        1 MOL      0.097741
    145 C46         5.9810    3.0010   -2.9830 c3        1 MOL     -0.078640
    146 C47         5.4280    3.3410   -4.4220 c3        1 MOL     -0.101384
    147 C48         4.1230    2.6470   -4.7860 c3        1 MOL     -0.002920
    148 N13         2.8750    3.3290   -4.3330 n4        1 MOL     -0.245889
    149 H67         6.7140   -0.9490   -2.4390 hn        1 MOL      0.157023
    150 H68         7.9940    1.4210   -1.6290 h1        1 MOL      0.147579
    151 H69         5.2780    0.9310   -3.0080 hc        1 MOL     -0.016386
    152 H70         6.8640    1.2430   -3.8440 hc        1 MOL     -0.016386
    153 H71         6.9370    3.4350   -2.6970 hc        1 MOL      0.042812
    154 H72         5.1380    3.1950   -2.3100 hc        1 MOL      0.042812
    155 H73         6.1350    2.9690   -5.1680 hc        1 MOL      0.089477
    156 H74         5.3910    4.4210   -4.5360 hc        1 MOL      0.089477
    157 H75         4.0730    1.6160   -4.4270 hx        1 MOL      0.074477
    158 H76         4.1820    2.6310   -5.8650 hx        1 MOL      0.074477
    159 H77         2.7760    4.2810   -4.6570 hn        1 MOL      0.300396
    160 H78         2.0530    2.7990   -4.5870 hn        1 MOL      0.300396
    161 H79         2.7970    3.4440   -3.3310 hn        1 MOL      0.300396
    162 N14         5.0700    1.1140   -0.1790 n         1 MOL      0.032226
    163 C49         4.1920    1.6880    0.8930 c3        1 MOL     -0.150472
    164 C50         4.8290    1.5080    2.2340 c         1 MOL      0.383333
    165 O22         5.0300    2.4390    2.9570 o         1 MOL     -0.530181
    166 C51         2.7840    1.0080    0.9210 c3        1 MOL      0.060114
    167 C52         1.9190    1.4190   -0.3010 c3        1 MOL      0.047466
    168 C53         0.5580    0.7180   -0.3690 c         1 MOL      0.602696
    169 O23         0.5180   -0.5060   -0.5810 o         1 MOL     -0.657921
    170 O24        -0.4450    1.4990   -0.5110 o         1 MOL     -0.657921
    171 H80         4.7810    0.2350   -0.5670 hn        1 MOL     -0.082125
    172 H81         3.9860    2.7440    0.7600 h1        1 MOL      0.071336
    173 H82         2.2170    1.1470    1.8340 hc        1 MOL      0.020632
    174 H83         2.8070   -0.0800    0.9610 hc        1 MOL      0.020632
    175 H84         2.4030    1.1200   -1.2310 hc        1 MOL     -0.065288
    176 H85         1.8110    2.5090   -0.3920 hc        1 MOL     -0.065288
    177 N15         5.2580    0.2950    2.5760 n         1 MOL     -0.048998
    178 C54         5.9520   -0.0230    3.8520 c3        1 MOL     -0.158661
    179 H86         6.9130   -0.4900    3.6360 h1        1 MOL      0.079522
    180 H87         6.1140    0.8950    4.4170 h1        1 MOL      0.079522
    181 H88         5.3400   -0.7080    4.4390 h1        1 MOL      0.079522
    182 H89         5.0460   -0.5150    2.0040 hn        1 MOL      0.103978
    183 Ca1        -1.8720   -0.4580   -1.4510 Ca        1 MOL      1.721251
    184 O25        -0.2910    0.4870   -3.4880 oh        1 MOL     -0.851856
    185 H90        -0.9880    0.8810   -4.0230 ho        1 MOL      0.391474
    186 H91         0.1730   -0.0870   -4.0990 ho        1 MOL      0.391474
    187 O26        -1.0240   -2.7100   -3.1590 oh        1 MOL     -0.851856
    188 H92        -1.7980   -2.7900   -3.7070 ho        1 MOL      0.391474
    189 H93        -0.2880   -2.8060   -3.7640 ho        1 MOL      0.391474
@<TRIPOS>BOND
     1    1    2 1   
     2    1    4 1   
     3    1    5 1   
     4    1    6 1   
     5    2    3 2   
     6    2    7 1   
     7    7    8 1   
     8    7   15 1   
     9    8    9 1   
    10    8   11 1   
    11    8   16 1   
    12    9   10 2   
    13    9   19 1   
    14   11   12 1   
    15   11   17 1   
    16   11   18 1   
    17   12   13 1   
    18   12   14 1   
    19   19   20 1   
    20   19   28 1   
    21   20   21 1   
    22   20   23 1   
    23   20   29 1   
    24   21   22 2   
    25   21   41 1   
    26   23   24 1   
    27   23   30 1   
    28   23   31 1   
    29   24   25 1   
    30   24   32 1   
    31   24   33 1   
    32   25   26 1   
    33   25   34 1   
    34   25   35 1   
    35   26   27 1   
    36   26   36 1   
    37   26   37 1   
    38   27   38 1   
    39   27   39 1   
    40   27   40 1   
    41   41   42 1   
    42   41   49 1   
    43   42   43 1   
    44   42   45 1   
    45   42   50 1   
    46   43   44 2   
    47   43   53 1   
    48   45   46 1   
    49   45   51 1   
    50   45   52 1   
    51   46   47 1   
    52   46   48 1   
    53   53   54 1   
    54   53   57 1   
    55   54   55 1   
    56   54   58 1   
    57   54   59 1   
    58   55   56 2   
    59   55   60 1   
    60   60   61 1   
    61   60   68 1   
    62   61   62 1   
    63   61   64 1   
    64   61   69 1   
    65   62   63 2   
    66   62   72 1   
    67   64   65 1   
    68   64   70 1   
    69   64   71 1   
    70   65   66 1   
    71   65   67 1   
    72   72   73 1   
    73   72   76 1   
    74   73   74 1   
    75   73   77 1   
    76   73   78 1   
    77   74   75 2   
    78   74   79 1   
    79   79   80 1   
    80   79   86 1   
    81   80   81 1   
    82   80   83 1   
    83   80   87 1   
    84   81   82 2   
    85   81   93 1   
    86   83   84 1   
    87   83   85 1   
    88   83   88 1   
    89   84   90 1   
    90   84   91 1   
    91   84   92 1   
    92   85   89 1   
    93   93   94 1   
    94   93  101 1   
    95   94   95 1   
    96   94   97 1   
    97   94  102 1   
    98   95   96 2   
    99   95  112 1   
   100   97   98 1   
   101   97   99 1   
   102   97  103 1   
   103   98  100 1   
   104   98  104 1   
   105   98  105 1   
   106   99  106 1   
   107   99  107 1   
   108   99  108 1   
   109  100  109 1   
   110  100  110 1   
   111  100  111 1   
   112  112  113 1   
   113  112  119 1   
   114  113  114 1   
   115  113  116 1   
   116  113  120 1   
   117  114  115 2   
   118  114  126 1   
   119  116  117 1   
   120  116  118 1   
   121  116  121 1   
   122  117  123 1   
   123  117  124 1   
   124  117  125 1   
   125  118  122 1   
   126  126  127 1   
   127  126  133 1   
   128  127  128 1   
   129  127  130 1   
   130  127  134 1   
   131  128  129 2   
   132  128  140 1   
   133  130  131 1   
   134  130  132 1   
   135  130  135 1   
   136  131  137 1   
   137  131  138 1   
   138  131  139 1   
   139  132  136 1   
   140  140  141 1   
   141  140  149 1   
   142  141  142 1   
   143  141  144 1   
   144  141  150 1   
   145  142  143 2   
   146  142  162 1   
   147  144  145 1   
   148  144  151 1   
   149  144  152 1   
   150  145  146 1   
   151  145  153 1   
   152  145  154 1   
   153  146  147 1   
   154  146  155 1   
   155  146  156 1   
   156  147  148 1   
   157  147  157 1   
   158  147  158 1   
   159  148  159 1   
   160  148  160 1   
   161  148  161 1   
   162  162  163 1   
   163  162  171 1   
   164  163  164 1   
   165  163  166 1   
   166  163  172 1   
   167  164  165 2   
   168  164  177 1   
   169  166  167 1   
   170  166  173 1   
   171  166  174 1   
   172  167  168 1   
   173  167  175 1   
   174  167  176 1   
   175  168  169 1   
   176  168  170 1   
   177  177  178 1   
   178  177  182 1   
   179  178  179 1   
   180  178  180 1   
   181  178  181 1   
   182  184  185 1   
   183  184  186 1   
   184  187  188 1   
   185  187  189 1   
@<TRIPOS>SUBSTRUCTURE
     1 MOL         1 TEMP              0 ****  ****    0 ROOT
