@<TRIPOS>MOLECULE
MOL
  179   176     1     0     0
SMALL
resp


@<TRIPOS>ATOM
      1 C1          0.1800   -3.0920    6.0020 c3        1 MOL     -0.310852
      2 C2          0.2290   -3.0300    4.4940 c         1 MOL      0.711131
      3 O1         -0.7810   -3.1010    3.7880 o         1 MOL     -0.579175
      4 H1         -0.7460   -2.6400    6.3550 hc        1 MOL      0.081395
      5 H2          0.2220   -4.1320    6.3250 hc        1 MOL      0.081395
      6 H3          1.0300   -2.5490    6.4160 hc        1 MOL      0.081395
      7 N1          1.4030   -2.8480    3.9410 n         1 MOL     -0.654638
      8 C3          1.7400   -2.3730    2.5620 c3        1 MOL      0.144710
      9 C4          2.6830   -3.3920    1.8340 c         1 MOL      0.571752
     10 O2          3.9090   -3.2840    1.8730 o         1 MOL     -0.521985
     11 C5          2.3600   -0.9410    2.5930 c3        1 MOL     -0.322642
     12 C6          2.3190   -0.3280    1.1530 c         1 MOL      0.886725
     13 O3          1.8120   -1.0170    0.1960 o         1 MOL     -0.801782
     14 O4          2.7890    0.7620    0.9270 o         1 MOL     -0.801782
     15 H4          2.1740   -2.8520    4.5980 hn        1 MOL      0.318012
     16 H5          0.8090   -2.2960    1.9900 h1        1 MOL      0.076385
     17 H6          3.4090   -0.9770    2.8840 hc        1 MOL      0.090423
     18 H7          1.6960   -0.4050    3.2630 hc        1 MOL      0.090423
     19 N2          2.1010   -4.2620    1.0100 n         1 MOL     -0.468282
     20 C7          2.9370   -5.3200    0.3530 c3        1 MOL      0.005272
     21 C8          4.0310   -4.7980   -0.4930 c         1 MOL      0.502027
     22 O5          5.1450   -5.2320   -0.2690 o         1 MOL     -0.528144
     23 C9          2.0800   -6.4630   -0.2700 c3        1 MOL      0.022066
     24 C10         2.8980   -7.5350   -0.9560 c3        1 MOL     -0.141352
     25 C11         3.7910   -8.3420   -0.0550 c3        1 MOL      0.178868
     26 C12         4.1390   -9.7650   -0.4930 c3        1 MOL      0.092975
     27 N3          5.0670  -10.4640    0.4220 n4        1 MOL     -0.394211
     28 H8          1.0940   -4.3520    1.0320 hn        1 MOL      0.297654
     29 H9          3.5240   -5.8300    1.1140 h1        1 MOL      0.033672
     30 H10         1.3080   -6.1140   -0.9480 hc        1 MOL      0.042745
     31 H11         1.4420   -6.9730    0.4580 hc        1 MOL      0.042745
     32 H12         3.4930   -7.0620   -1.7370 hc        1 MOL      0.035662
     33 H13         2.2380   -8.3300   -1.2840 hc        1 MOL      0.035662
     34 H14         3.2990   -8.3450    0.9240 hc        1 MOL     -0.026044
     35 H15         4.7160   -7.7680   -0.0520 hc        1 MOL     -0.026044
     36 H16         4.4990   -9.7890   -1.5170 hx        1 MOL      0.052645
     37 H17         3.1330  -10.1900   -0.4830 hx        1 MOL      0.052645
     38 H18         4.9990  -10.1550    1.3830 hn        1 MOL      0.336537
     39 H19         4.7960  -11.4330    0.5350 hn        1 MOL      0.336537
     40 H20         6.0200  -10.4370    0.0750 hn        1 MOL      0.336537
     41 N4          3.7290   -3.9480   -1.4530 n         1 MOL     -0.374984
     42 C13         4.7380   -3.3270   -2.2950 c3        1 MOL      0.050720
     43 C14         5.7860   -2.5240   -1.5690 c         1 MOL      0.337594
     44 O6          6.8730   -2.2870   -2.1430 o         1 MOL     -0.543035
     45 C15         4.1140   -2.4110   -3.3410 c3        1 MOL     -0.253101
     46 C16         3.1530   -1.4330   -2.7030 c         1 MOL      0.739220
     47 O7          1.9120   -1.6020   -2.7370 o         1 MOL     -0.757213
     48 O8          3.6260   -0.4550   -2.0840 o         1 MOL     -0.757213
     49 H21         2.7600   -3.6700   -1.5520 hn        1 MOL      0.325474
     50 H22         5.3040   -4.1090   -2.8150 h1        1 MOL      0.095243
     51 H23         3.5880   -3.0110   -4.0740 hc        1 MOL      0.072577
     52 H24         4.9190   -1.8860   -3.8470 hc        1 MOL      0.072577
     53 N5          5.5760   -2.1390   -0.3000 n         1 MOL     -0.019246
     54 C17         6.5250   -1.4600    0.5870 c3        1 MOL     -0.174339
     55 C18         6.7240    0.0350    0.3550 c         1 MOL      0.508338
     56 O9          7.6280    0.5990    0.9980 o         1 MOL     -0.562906
     57 H25         4.6890   -2.4180    0.0840 hn        1 MOL      0.129433
     58 H26         7.4560   -2.0090    0.4990 h1        1 MOL      0.105140
     59 H27         6.2840   -1.6000    1.6320 h1        1 MOL      0.105140
     60 N6          5.8670    0.7200   -0.4010 n         1 MOL     -0.454702
     61 C19         6.1700    2.0690   -0.7820 c3        1 MOL      0.303336
     62 C20         5.8190    3.1830    0.2690 c         1 MOL      0.488305
     63 O10         6.5910    4.1010    0.3100 o         1 MOL     -0.565713
     64 C21         5.6680    2.3480   -2.2100 c3        1 MOL     -0.394720
     65 C22         4.2930    3.0260   -2.3370 c         1 MOL      0.605167
     66 N7          4.2630    4.0730   -3.0560 n         1 MOL     -0.594567
     67 O11         3.2920    2.6700   -1.6710 o         1 MOL     -0.640772
     68 H28         5.1830    0.2500   -0.9660 hn        1 MOL      0.386595
     69 H29         7.2590    2.2060   -0.8560 h1        1 MOL      0.034485
     70 H30         5.6740    1.3500   -2.6550 hc        1 MOL      0.107391
     71 H31         6.4060    3.0270   -2.6180 hc        1 MOL      0.107391
     72 H32         5.0720    4.4290   -3.5380 hn        1 MOL      0.326193
     73 H33         3.3390    4.3380   -3.3630 hn        1 MOL      0.326193
     74 N8          4.8680    2.9540    1.1600 n         1 MOL     -0.237900
     75 C23         4.4480    3.8050    2.2960 c3        1 MOL     -0.121130
     76 C24         3.0110    4.4420    2.2290 c         1 MOL      0.468227
     77 O12         2.7200    5.3670    2.9740 o         1 MOL     -0.544662
     78 H34         4.3360    2.0980    1.1100 hn        1 MOL      0.203839
     79 H35         5.1500    4.6100    2.4950 h1        1 MOL      0.094012
     80 H36         4.4120    3.2540    3.2310 h1        1 MOL      0.094012
     81 N9          2.2140    3.9770    1.2310 n         1 MOL     -0.100098
     82 C25         0.7860    4.2540    1.1870 c3        1 MOL      0.045535
     83 C26        -0.0600    2.9830    1.0070 c         1 MOL      0.410993
     84 O13         0.3940    1.9840    0.4350 o         1 MOL     -0.573762
     85 C27         0.5560    5.2010   -0.0270 c3        1 MOL      0.019923
     86 C28         1.0080    6.6040    0.0600 ca        1 MOL     -0.002693
     87 C29         2.2710    6.8970   -0.3810 ca        1 MOL     -0.091390
     88 C30         0.2440    7.6480    0.5940 ca        1 MOL     -0.091390
     89 C31         2.7240    8.2480   -0.4480 ca        1 MOL     -0.343249
     90 C32         0.6990    8.9940    0.5740 ca        1 MOL     -0.343249
     91 C33         2.0150    9.2860    0.1630 ca        1 MOL      0.441465
     92 O14         2.3700   10.5940    0.1370 oh        1 MOL     -0.497465
     93 H37         2.6340    3.4160    0.5150 hn        1 MOL      0.140741
     94 H38         0.3710    4.5410    2.1600 h1        1 MOL      0.044943
     95 H39        -0.5270    5.1760   -0.1610 hc        1 MOL     -0.014656
     96 H40         0.8780    4.6320   -0.9030 hc        1 MOL     -0.014656
     97 H41         2.9580    6.1090   -0.6370 ha        1 MOL      0.110103
     98 H42        -0.7370    7.3750    0.9720 ha        1 MOL      0.110103
     99 H43         3.7490    8.4580   -0.7290 ha        1 MOL      0.159576
    100 H44         0.1420    9.7560    1.1120 ha        1 MOL      0.159576
    101 H45         1.6540   11.0840    0.5530 ho        1 MOL      0.352926
    102 N10        -1.2980    2.9620    1.4790 n         1 MOL     -0.301947
    103 C34        -2.3730    2.0170    1.0910 c3        1 MOL     -0.073479
    104 C35        -3.6620    2.7230    0.6730 c         1 MOL      0.472268
    105 O15        -4.1390    3.5170    1.4920 o         1 MOL     -0.533958
    106 C36        -2.6690    0.8720    2.0900 c3        1 MOL     -0.132429
    107 C37        -2.9320    1.4290    3.5470 c3        1 MOL     -0.028832
    108 C38        -1.3920    0.0130    2.0670 c3        1 MOL     -0.623599
    109 C39        -3.7060    0.3580    4.4180 c3        1 MOL     -0.143568
    110 H46        -1.5740    3.7750    2.0000 hn        1 MOL      0.268124
    111 H47        -2.0040    1.5500    0.1730 h1        1 MOL      0.089689
    112 H48        -3.5720    0.4160    1.6830 hc        1 MOL      0.171681
    113 H49        -3.3880    2.4200    3.6120 hc        1 MOL      0.054293
    114 H50        -2.0120    1.5850    4.1020 hc        1 MOL      0.054293
    115 H51        -0.9880   -0.2140    1.0870 hc        1 MOL      0.208002
    116 H52        -0.5360    0.5440    2.4890 hc        1 MOL      0.208002
    117 H53        -1.5300   -0.9830    2.4930 hc        1 MOL      0.208002
    118 H54        -4.2040    0.8240    5.2740 hc        1 MOL      0.034813
    119 H55        -4.5120   -0.0640    3.8290 hc        1 MOL      0.034813
    120 H56        -3.1090   -0.5030    4.7110 hc        1 MOL      0.034813
    121 N11        -4.1880    2.2520   -0.4310 n         1 MOL     -0.233142
    122 C40        -5.5700    2.4710   -0.8540 c3        1 MOL     -0.043201
    123 C41        -6.5380    1.4510   -0.1320 c         1 MOL      0.434882
    124 O16        -6.1380    0.6600    0.7380 o         1 MOL     -0.332932
    125 C42        -5.6290    2.2270   -2.3370 c3        1 MOL     -0.175108
    126 O17        -5.4470    0.8380   -2.7070 oh        1 MOL     -0.550698
    127 H57        -3.6660    1.5260   -0.8940 hn        1 MOL      0.136527
    128 H58        -5.8730    3.5030   -0.7150 h1        1 MOL      0.086581
    129 H59        -4.9000    2.8640   -2.8300 h1        1 MOL      0.128759
    130 H60        -6.6200    2.4740   -2.7110 h1        1 MOL      0.128759
    131 H61        -4.5260    0.6480   -2.5350 ho        1 MOL      0.406512
    132 N12        -7.8340    1.4830   -0.5110 n         1 MOL     -0.456881
    133 C43        -8.9330    0.6750    0.1500 c3        1 MOL      0.204323
    134 C44        -8.7920   -0.8390   -0.2270 c         1 MOL      0.356139
    135 O18        -8.7500   -1.7230    0.6720 o         1 MOL     -0.496560
    136 C45       -10.2900    1.3150   -0.2220 c3        1 MOL     -0.334109
    137 H62        -8.0600    2.0910   -1.2880 hn        1 MOL      0.286064
    138 H63        -8.9000    0.8040    1.2390 h1        1 MOL      0.080504
    139 H64       -11.0820    0.8400    0.3640 hc        1 MOL      0.096185
    140 H65       -10.2050    2.3550    0.0860 hc        1 MOL      0.096185
    141 H66       -10.4960    1.2180   -1.2870 hc        1 MOL      0.096185
    142 N13        -8.5570   -1.0920   -1.5170 n         1 MOL     -0.324659
    143 C46        -8.2550   -2.4250   -2.0440 c3        1 MOL      0.034098
    144 C47        -6.9230   -3.0370   -1.6640 c         1 MOL      0.459516
    145 O19        -6.7820   -4.2110   -1.8700 o         1 MOL     -0.523721
    146 C48        -8.2810   -2.3100   -3.5920 c3        1 MOL     -0.299035
    147 H67        -8.7340   -0.3710   -2.1940 hn        1 MOL      0.308401
    148 H68        -8.9800   -3.1760   -1.7410 h1        1 MOL      0.111980
    149 H69        -7.8700   -1.3160   -3.7740 hc        1 MOL      0.082143
    150 H70        -7.6080   -3.0190   -4.0710 hc        1 MOL      0.082143
    151 H71        -9.2610   -2.2670   -4.0480 hc        1 MOL      0.082143
    152 N14        -5.9450   -2.2520   -1.0890 n         1 MOL     -0.070798
    153 C49        -4.7340   -2.7910   -0.4670 c3        1 MOL     -0.029042
    154 C50        -5.0840   -3.1160    0.9490 c         1 MOL      0.509001
    155 O20        -4.8630   -4.2140    1.3320 o         1 MOL     -0.538123
    156 C51        -3.6450   -1.7170   -0.5760 c3        1 MOL      0.098937
    157 C52        -3.1450   -1.6560   -2.0070 c3        1 MOL     -0.385473
    158 C53        -2.2260   -0.4400   -2.1370 c         1 MOL      0.741421
    159 O21        -2.7680    0.6710   -2.2190 o         1 MOL     -0.665814
    160 O22        -1.0080   -0.4750   -1.9100 o         1 MOL     -0.665814
    161 H72        -6.1980   -1.2770   -0.9480 hn        1 MOL      0.035710
    162 H73        -4.4840   -3.7460   -0.9330 h1        1 MOL      0.083085
    163 H74        -2.8420   -2.0020    0.0900 hc        1 MOL      0.018422
    164 H75        -4.0480   -0.7580   -0.2430 hc        1 MOL      0.018422
    165 H76        -3.9640   -1.5260   -2.7240 hc        1 MOL      0.092115
    166 H77        -2.6540   -2.5940   -2.2490 hc        1 MOL      0.092115
    167 N15        -5.6600   -2.1570    1.7730 n         1 MOL     -0.138830
    168 C54        -6.2120   -2.4750    3.0930 c3        1 MOL     -0.446681
    169 H78        -6.9970   -1.7600    3.3400 h1        1 MOL      0.153614
    170 H79        -6.6300   -3.4820    3.0800 h1        1 MOL      0.153614
    171 H80        -5.4220   -2.4190    3.8410 h1        1 MOL      0.153614
    172 H81        -5.8960   -1.2650    1.3610 hn        1 MOL      0.133192
    173 Ca1         1.2900    0.8150   -1.6180 Ca        1 MOL      1.776523
    174 O23         1.6940    1.6250   -4.1150 oh        1 MOL     -0.832472
    175 H82         2.5260    1.3640   -4.4990 ho        1 MOL      0.410508
    176 H83         1.1320    1.8370   -4.8600 ho        1 MOL      0.410508
    177 O24        -0.7560    2.4010   -2.4630 oh        1 MOL     -0.832472
    178 H84        -1.6120    1.9790   -2.4210 ho        1 MOL      0.410508
    179 H85        -0.9530    3.3370   -2.4110 ho        1 MOL      0.410508
@<TRIPOS>BOND
     1    1    2 1   
     2    1    4 1   
     3    1    5 1   
     4    1    6 1   
     5    2    3 2   
     6    2    7 1   
     7    7    8 1   
     8    7   15 1   
     9    8    9 1   
    10    8   11 1   
    11    8   16 1   
    12    9   10 2   
    13    9   19 1   
    14   11   12 1   
    15   11   17 1   
    16   11   18 1   
    17   12   13 1   
    18   12   14 1   
    19   19   20 1   
    20   19   28 1   
    21   20   21 1   
    22   20   23 1   
    23   20   29 1   
    24   21   22 2   
    25   21   41 1   
    26   23   24 1   
    27   23   30 1   
    28   23   31 1   
    29   24   25 1   
    30   24   32 1   
    31   24   33 1   
    32   25   26 1   
    33   25   34 1   
    34   25   35 1   
    35   26   27 1   
    36   26   36 1   
    37   26   37 1   
    38   27   38 1   
    39   27   39 1   
    40   27   40 1   
    41   41   42 1   
    42   41   49 1   
    43   42   43 1   
    44   42   45 1   
    45   42   50 1   
    46   43   44 2   
    47   43   53 1   
    48   45   46 1   
    49   45   51 1   
    50   45   52 1   
    51   46   47 1   
    52   46   48 1   
    53   53   54 1   
    54   53   57 1   
    55   54   55 1   
    56   54   58 1   
    57   54   59 1   
    58   55   56 2   
    59   55   60 1   
    60   60   61 1   
    61   60   68 1   
    62   61   62 1   
    63   61   64 1   
    64   61   69 1   
    65   62   63 2   
    66   62   74 1   
    67   64   65 1   
    68   64   70 1   
    69   64   71 1   
    70   65   66 1   
    71   65   67 2   
    72   66   72 1   
    73   66   73 1   
    74   74   75 1   
    75   74   78 1   
    76   75   76 1   
    77   75   79 1   
    78   75   80 1   
    79   76   77 2   
    80   76   81 1   
    81   81   82 1   
    82   81   93 1   
    83   82   83 1   
    84   82   85 1   
    85   82   94 1   
    86   83   84 2   
    87   83  102 1   
    88   85   86 1   
    89   85   95 1   
    90   85   96 1   
    91   86   87 ar  
    92   86   88 ar  
    93   87   89 ar  
    94   87   97 1   
    95   88   90 ar  
    96   88   98 1   
    97   89   91 ar  
    98   89   99 1   
    99   90   91 ar  
   100   90  100 1   
   101   91   92 1   
   102   92  101 1   
   103  102  103 1   
   104  102  110 1   
   105  103  104 1   
   106  103  106 1   
   107  103  111 1   
   108  104  105 2   
   109  104  121 1   
   110  106  107 1   
   111  106  108 1   
   112  106  112 1   
   113  107  109 1   
   114  107  113 1   
   115  107  114 1   
   116  108  115 1   
   117  108  116 1   
   118  108  117 1   
   119  109  118 1   
   120  109  119 1   
   121  109  120 1   
   122  121  122 1   
   123  121  127 1   
   124  122  123 1   
   125  122  125 1   
   126  122  128 1   
   127  123  124 2   
   128  123  132 1   
   129  125  126 1   
   130  125  129 1   
   131  125  130 1   
   132  126  131 1   
   133  132  133 1   
   134  132  137 1   
   135  133  134 1   
   136  133  136 1   
   137  133  138 1   
   138  134  135 2   
   139  134  142 1   
   140  136  139 1   
   141  136  140 1   
   142  136  141 1   
   143  142  143 1   
   144  142  147 1   
   145  143  144 1   
   146  143  146 1   
   147  143  148 1   
   148  144  145 2   
   149  144  152 1   
   150  146  149 1   
   151  146  150 1   
   152  146  151 1   
   153  152  153 1   
   154  152  161 1   
   155  153  154 1   
   156  153  156 1   
   157  153  162 1   
   158  154  155 2   
   159  154  167 1   
   160  156  157 1   
   161  156  163 1   
   162  156  164 1   
   163  157  158 1   
   164  157  165 1   
   165  157  166 1   
   166  158  159 1   
   167  158  160 1   
   168  167  168 1   
   169  167  172 1   
   170  168  169 1   
   171  168  170 1   
   172  168  171 1   
   173  174  175 1   
   174  174  176 1   
   175  177  178 1   
   176  177  179 1   
@<TRIPOS>SUBSTRUCTURE
     1 MOL         1 TEMP              0 ****  ****    0 ROOT
