@<TRIPOS>MOLECULE
MOL
  179   176     1     0     0
SMALL
resp


@<TRIPOS>ATOM
      1 C1          1.3440    3.8730    5.7810 c3        1 MOL     -0.411816
      2 C2          1.0920    3.2540    4.4710 c         1 MOL      0.913933
      3 O1          1.8810    3.3240    3.6050 o         1 MOL     -0.656139
      4 H1          1.0720    3.1730    6.5710 hc        1 MOL      0.097786
      5 H2          2.4000    4.1250    5.8670 hc        1 MOL      0.097786
      6 H3          0.7440    4.7780    5.8770 hc        1 MOL      0.097786
      7 N1         -0.0630    2.6370    4.2470 n         1 MOL     -0.767570
      8 C3         -0.5710    2.3460    2.9490 c3        1 MOL      0.220234
      9 C4         -0.7870    3.6300    2.1310 c         1 MOL      0.508624
     10 O2         -1.5610    4.5050    2.5530 o         1 MOL     -0.575726
     11 C5         -1.8900    1.4010    3.0150 c3        1 MOL     -0.202445
     12 C6         -2.6580    1.3980    1.6850 c         1 MOL      0.661971
     13 O3         -2.1460    1.6510    0.5430 o         1 MOL     -0.668796
     14 O4         -3.8840    1.0500    1.8900 o         1 MOL     -0.668796
     15 H4         -0.7510    2.5560    4.9850 hn        1 MOL      0.341707
     16 H5          0.1840    1.8060    2.3840 h1        1 MOL     -0.011608
     17 H6         -2.5590    1.6800    3.8230 hc        1 MOL      0.066292
     18 H7         -1.5070    0.4000    3.2210 hc        1 MOL      0.066292
     19 N2         -0.1330    3.7680    0.9230 n         1 MOL     -0.283006
     20 C7          0.0120    5.0920    0.1610 c3        1 MOL     -0.075886
     21 C8         -1.2110    5.5320   -0.5950 c         1 MOL      0.693687
     22 O5         -1.2610    6.6370   -0.9930 o         1 MOL     -0.604378
     23 C9          1.3020    5.0970   -0.6500 c3        1 MOL      0.097700
     24 C10         1.9190    6.4620   -0.8250 c3        1 MOL     -0.137062
     25 C11         3.2000    6.3720   -1.6420 c3        1 MOL     -0.085004
     26 C12         4.3500    5.9500   -0.8010 c3        1 MOL      0.001445
     27 N3          5.5580    6.0680   -1.5310 n4        1 MOL     -0.356396
     28 H8          0.4850    3.0070    0.6850 hn        1 MOL      0.256216
     29 H9          0.1480    5.8380    0.9370 h1        1 MOL      0.061875
     30 H10         1.0230    4.5900   -1.5630 hc        1 MOL      0.029096
     31 H11         2.0430    4.5170   -0.0840 hc        1 MOL      0.029096
     32 H12         2.2170    6.8270    0.1590 hc        1 MOL      0.065845
     33 H13         1.2200    7.1140   -1.3460 hc        1 MOL      0.065845
     34 H14         3.3130    7.3800   -2.0580 hc        1 MOL      0.050723
     35 H15         3.0670    5.7770   -2.5440 hc        1 MOL      0.050723
     36 H16         4.2500    4.9070   -0.4910 hx        1 MOL      0.104160
     37 H17         4.3050    6.5620    0.1050 hx        1 MOL      0.104160
     38 H18         5.4820    6.7840   -2.2440 hn        1 MOL      0.330045
     39 H19         6.2360    6.4050   -0.8630 hn        1 MOL      0.330045
     40 H20         5.8970    5.2150   -1.9300 hn        1 MOL      0.330045
     41 N4         -2.2590    4.7280   -0.7470 n         1 MOL     -0.502844
     42 C13        -3.4850    4.9150   -1.6330 c3        1 MOL      0.082209
     43 C14        -4.7980    4.3490   -1.1050 c         1 MOL      0.482148
     44 O6         -5.7850    4.4040   -1.8330 o         1 MOL     -0.525088
     45 C15        -3.1550    4.3290   -2.9980 c3        1 MOL     -0.208089
     46 C16        -2.6550    2.8600   -2.9160 c         1 MOL      0.741051
     47 O7         -3.4850    1.9040   -2.7430 o         1 MOL     -0.730963
     48 O8         -1.4060    2.6930   -2.8330 o         1 MOL     -0.730963
     49 H21        -2.1280    3.7660   -0.4660 hn        1 MOL      0.215392
     50 H22        -3.7170    5.9800   -1.6860 h1        1 MOL      0.113764
     51 H23        -2.3640    4.8090   -3.5800 hc        1 MOL      0.052963
     52 H24        -4.0250    4.4640   -3.6280 hc        1 MOL      0.052963
     53 N5         -4.8240    3.8680    0.1570 n         1 MOL     -0.403234
     54 C17        -6.0780    3.5410    0.8350 c3        1 MOL     -0.010868
     55 C18        -6.6570    2.1560    0.5950 c         1 MOL      0.431809
     56 O9         -7.6960    1.8540    1.1610 o         1 MOL     -0.561780
     57 H25        -3.9740    3.8050    0.7010 hn        1 MOL      0.286635
     58 H26        -6.9170    4.2320    0.7430 h1        1 MOL      0.084067
     59 H27        -5.9130    3.5990    1.9090 h1        1 MOL      0.084067
     60 N6         -5.9930    1.3500   -0.2280 n         1 MOL     -0.109309
     61 C19        -6.6280    0.2000   -0.8420 c3        1 MOL     -0.090256
     62 C20        -6.6560   -1.0160    0.1200 c         1 MOL      0.291169
     63 O10        -7.1230   -2.1010   -0.2530 o         1 MOL     -0.454892
     64 C21        -6.0640   -0.1100   -2.2160 c3        1 MOL     -0.298610
     65 C22        -4.7610   -0.8750   -2.2630 c         1 MOL      0.673330
     66 N7         -4.6550   -1.8380   -3.1550 n         1 MOL     -0.783535
     67 O11        -3.8390   -0.7300   -1.4210 o         1 MOL     -0.489455
     68 H28        -5.1130    1.6330   -0.6530 hn        1 MOL      0.198657
     69 H29        -7.6830    0.3980   -1.0610 h1        1 MOL      0.138347
     70 H30        -5.9600    0.9060   -2.5970 hc        1 MOL      0.120718
     71 H31        -6.8000   -0.6290   -2.8310 hc        1 MOL      0.120718
     72 H32        -5.4480   -2.2190   -3.6640 hn        1 MOL      0.372038
     73 H33        -3.7670   -2.3010   -3.2440 hn        1 MOL      0.372038
     74 N8         -6.0990   -0.9140    1.3350 n         1 MOL     -0.011473
     75 C23        -6.0860   -1.9790    2.3600 c3        1 MOL     -0.414095
     76 C24        -4.8430   -2.9570    2.2110 c         1 MOL      0.745183
     77 O12        -4.7690   -4.0010    2.8910 o         1 MOL     -0.593832
     78 H34        -5.3930   -0.2000    1.4250 hn        1 MOL      0.157943
     79 H35        -7.0320   -2.5310    2.3900 h1        1 MOL      0.156536
     80 H36        -5.8430   -1.5400    3.3360 h1        1 MOL      0.156536
     81 N9         -3.8530   -2.5020    1.4710 n         1 MOL     -0.528096
     82 C25        -2.6580   -3.2120    1.0950 c3        1 MOL      0.086848
     83 C26        -1.3740   -2.3880    0.9430 c         1 MOL      0.641260
     84 O13        -1.4140   -1.2810    0.4520 o         1 MOL     -0.699275
     85 C27        -2.9110   -3.8920   -0.3430 c3        1 MOL     -0.173259
     86 C28        -4.1270   -4.8160   -0.4030 ca        1 MOL      0.339690
     87 C29        -5.3260   -4.4680   -1.1040 ca        1 MOL     -0.476469
     88 C30        -4.0090   -6.0620    0.1990 ca        1 MOL     -0.476469
     89 C31        -6.4400   -5.3640   -1.0710 ca        1 MOL      0.031712
     90 C32        -5.1130   -6.9020    0.2860 ca        1 MOL      0.031712
     91 C33        -6.3150   -6.6220   -0.4060 ca        1 MOL      0.081984
     92 O14        -7.3740   -7.4720   -0.2800 oh        1 MOL     -0.449130
     93 H37        -4.0360   -1.6670    0.9380 hn        1 MOL      0.344416
     94 H38        -2.4600   -4.0210    1.8000 h1        1 MOL      0.058494
     95 H39        -2.0120   -4.4160   -0.6770 hc        1 MOL      0.030978
     96 H40        -3.0480   -3.0400   -1.0040 hc        1 MOL      0.030978
     97 H41        -5.4400   -3.5120   -1.6050 ha        1 MOL      0.197910
     98 H42        -3.0850   -6.2440    0.7320 ha        1 MOL      0.197910
     99 H43        -7.3810   -5.0980   -1.5180 ha        1 MOL      0.087191
    100 H44        -5.0340   -7.8770    0.7430 ha        1 MOL      0.087191
    101 H45        -7.1390   -8.3150    0.1070 ho        1 MOL      0.360956
    102 N10        -0.2330   -2.9460    1.2660 n         1 MOL     -0.508633
    103 C34         1.0970   -2.4700    0.9020 c3        1 MOL      0.069317
    104 C35         1.9680   -3.3980    0.0800 c         1 MOL      0.456098
    105 O15         1.9670   -4.6050    0.3640 o         1 MOL     -0.547670
    106 C36         1.8950   -1.9000    2.1390 c3        1 MOL      0.079337
    107 C37         2.2660   -2.8730    3.3140 c3        1 MOL     -0.399543
    108 C38         1.0610   -0.7570    2.6040 c3        1 MOL     -0.350777
    109 C39         3.0000   -2.0990    4.4130 c3        1 MOL     -0.026607
    110 H46        -0.1960   -3.8400    1.7530 hn        1 MOL      0.275388
    111 H47         0.8650   -1.6490    0.2160 h1        1 MOL      0.253135
    112 H48         2.8300   -1.4640    1.7740 hc        1 MOL      0.047242
    113 H49         2.8900   -3.7070    3.0120 hc        1 MOL      0.137847
    114 H50         1.3100   -3.1410    3.7710 hc        1 MOL      0.137847
    115 H51         0.9420   -0.0400    1.7860 hc        1 MOL      0.114489
    116 H52         0.0750   -1.0380    2.9720 hc        1 MOL      0.114489
    117 H53         1.5320   -0.1290    3.3660 hc        1 MOL      0.114489
    118 H54         3.5350   -2.7740    5.0820 hc        1 MOL      0.022089
    119 H55         3.7650   -1.4560    3.9680 hc        1 MOL      0.022089
    120 H56         2.3750   -1.4480    5.0210 hc        1 MOL      0.022089
    121 N11         2.7360   -2.8540   -0.8360 n         1 MOL     -0.318084
    122 C40         3.8880   -3.5260   -1.4810 c3        1 MOL      0.063036
    123 C41         5.0150   -3.5420   -0.5280 c         1 MOL      0.430486
    124 O16         5.0330   -2.9050    0.5310 o         1 MOL     -0.328113
    125 C42         4.1800   -2.7870   -2.7510 c3        1 MOL     -0.356705
    126 O17         4.5780   -1.4440   -2.6110 oh        1 MOL     -0.135751
    127 H57         2.5600   -1.9150   -1.1820 hn        1 MOL      0.252861
    128 H58         3.7520   -4.5720   -1.7680 h1        1 MOL      0.088231
    129 H59         3.3300   -2.8130   -3.4330 h1        1 MOL      0.129789
    130 H60         5.0380   -3.2830   -3.2030 h1        1 MOL      0.129789
    131 H61         4.5190   -0.9610   -3.4450 ho        1 MOL      0.326410
    132 N12         6.1250   -4.1980   -0.9270 n         1 MOL     -0.404226
    133 C43         7.4470   -4.0670   -0.3180 c3        1 MOL      0.034960
    134 C44         8.0700   -2.7080   -0.5040 c         1 MOL      0.515200
    135 O18         8.7850   -2.2600    0.3990 o         1 MOL     -0.512141
    136 C45         8.2610   -5.2140   -0.9250 c3        1 MOL     -0.284160
    137 H62         5.9910   -4.8700   -1.6720 hn        1 MOL      0.290189
    138 H63         7.4180   -4.2710    0.7610 h1        1 MOL      0.110365
    139 H64         9.2320   -5.2970   -0.4470 hc        1 MOL      0.091858
    140 H65         7.7330   -6.1720   -0.9180 hc        1 MOL      0.091858
    141 H66         8.4600   -5.1160   -1.9970 hc        1 MOL      0.091858
    142 N13         7.8860   -2.0220   -1.6070 n         1 MOL     -0.403916
    143 C46         8.2960   -0.6700   -1.8500 c3        1 MOL      0.166369
    144 C47         7.4480    0.3510   -0.9860 c         1 MOL      0.361768
    145 O19         8.0310    1.2780   -0.4730 o         1 MOL     -0.491964
    146 C48         8.1100   -0.5180   -3.4000 c3        1 MOL     -0.357329
    147 H67         7.3340   -2.4740   -2.3130 hn        1 MOL      0.266343
    148 H68         9.3120   -0.5900   -1.4660 h1        1 MOL      0.087540
    149 H69         8.7990   -1.2060   -3.8900 hc        1 MOL      0.094867
    150 H70         7.1140   -0.7820   -3.7430 hc        1 MOL      0.094867
    151 H71         8.3950    0.5110   -3.6290 hc        1 MOL      0.094867
    152 N14         6.1220    0.0360   -0.7460 n         1 MOL     -0.007891
    153 C49         5.3560    0.8060    0.2740 c3        1 MOL     -0.070541
    154 C50         5.7440    0.4870    1.6490 c         1 MOL      0.358942
    155 O20         5.8100    1.4250    2.4690 o         1 MOL     -0.552958
    156 C51         3.8590    0.5190    0.0680 c3        1 MOL      0.183376
    157 C52         3.2010    1.3920   -1.0090 c3        1 MOL     -0.429723
    158 C53         1.6920    0.8980   -1.2050 c         1 MOL      0.817140
    159 O21         0.6930    1.4620   -0.6420 o         1 MOL     -0.801469
    160 O22         1.3700   -0.0300   -1.9890 o         1 MOL     -0.801469
    161 H72         5.6480   -0.7470   -1.1910 hn        1 MOL     -0.229281
    162 H73         5.5180    1.8850    0.2370 h1        1 MOL      0.083435
    163 H74         3.3180    0.7580    0.9850 hc        1 MOL      0.019011
    164 H75         3.7740   -0.5570   -0.0960 hc        1 MOL      0.019011
    165 H76         3.6780    1.3510   -1.9890 hc        1 MOL      0.076057
    166 H77         3.1790    2.3920   -0.5920 hc        1 MOL      0.076057
    167 N15         6.2510   -0.7060    1.9750 n         1 MOL      0.075157
    168 C54         6.9150   -1.0370    3.2630 c3        1 MOL     -0.354964
    169 H78         6.2890   -1.7310    3.8260 h1        1 MOL      0.124443
    170 H79         7.8820   -1.4990    3.0660 h1        1 MOL      0.124443
    171 H80         7.0570   -0.1260    3.8440 h1        1 MOL      0.124443
    172 H81         6.0970   -1.5030    1.3690 hn        1 MOL      0.067625
    173 Ca1        -1.4090    0.3480   -1.5920 Ca        1 MOL      1.728564
    174 O23        -1.7050   -0.0970   -4.2720 oh        1 MOL     -0.858106
    175 H82        -1.4060   -0.7810   -4.8580 ho        1 MOL      0.411738
    176 H83        -1.4910    0.7190   -4.7240 ho        1 MOL      0.411738
    177 O24        -1.0000   -2.2640   -2.3540 oh        1 MOL     -0.858106
    178 H84        -0.2330   -2.8260   -2.4620 ho        1 MOL      0.411738
    179 H85        -1.5170   -2.4180   -3.1450 ho        1 MOL      0.411738
@<TRIPOS>BOND
     1    1    2 1   
     2    1    4 1   
     3    1    5 1   
     4    1    6 1   
     5    2    3 2   
     6    2    7 1   
     7    7    8 1   
     8    7   15 1   
     9    8    9 1   
    10    8   11 1   
    11    8   16 1   
    12    9   10 2   
    13    9   19 1   
    14   11   12 1   
    15   11   17 1   
    16   11   18 1   
    17   12   13 1   
    18   12   14 1   
    19   19   20 1   
    20   19   28 1   
    21   20   21 1   
    22   20   23 1   
    23   20   29 1   
    24   21   22 2   
    25   21   41 1   
    26   23   24 1   
    27   23   30 1   
    28   23   31 1   
    29   24   25 1   
    30   24   32 1   
    31   24   33 1   
    32   25   26 1   
    33   25   34 1   
    34   25   35 1   
    35   26   27 1   
    36   26   36 1   
    37   26   37 1   
    38   27   38 1   
    39   27   39 1   
    40   27   40 1   
    41   41   42 1   
    42   41   49 1   
    43   42   43 1   
    44   42   45 1   
    45   42   50 1   
    46   43   44 2   
    47   43   53 1   
    48   45   46 1   
    49   45   51 1   
    50   45   52 1   
    51   46   47 1   
    52   46   48 1   
    53   53   54 1   
    54   53   57 1   
    55   54   55 1   
    56   54   58 1   
    57   54   59 1   
    58   55   56 2   
    59   55   60 1   
    60   60   61 1   
    61   60   68 1   
    62   61   62 1   
    63   61   64 1   
    64   61   69 1   
    65   62   63 2   
    66   62   74 1   
    67   64   65 1   
    68   64   70 1   
    69   64   71 1   
    70   65   66 1   
    71   65   67 2   
    72   66   72 1   
    73   66   73 1   
    74   74   75 1   
    75   74   78 1   
    76   75   76 1   
    77   75   79 1   
    78   75   80 1   
    79   76   77 2   
    80   76   81 1   
    81   81   82 1   
    82   81   93 1   
    83   82   83 1   
    84   82   85 1   
    85   82   94 1   
    86   83   84 2   
    87   83  102 1   
    88   85   86 1   
    89   85   95 1   
    90   85   96 1   
    91   86   87 ar  
    92   86   88 ar  
    93   87   89 ar  
    94   87   97 1   
    95   88   90 ar  
    96   88   98 1   
    97   89   91 ar  
    98   89   99 1   
    99   90   91 ar  
   100   90  100 1   
   101   91   92 1   
   102   92  101 1   
   103  102  103 1   
   104  102  110 1   
   105  103  104 1   
   106  103  106 1   
   107  103  111 1   
   108  104  105 2   
   109  104  121 1   
   110  106  107 1   
   111  106  108 1   
   112  106  112 1   
   113  107  109 1   
   114  107  113 1   
   115  107  114 1   
   116  108  115 1   
   117  108  116 1   
   118  108  117 1   
   119  109  118 1   
   120  109  119 1   
   121  109  120 1   
   122  121  122 1   
   123  121  127 1   
   124  122  123 1   
   125  122  125 1   
   126  122  128 1   
   127  123  124 2   
   128  123  132 1   
   129  125  126 1   
   130  125  129 1   
   131  125  130 1   
   132  126  131 1   
   133  132  133 1   
   134  132  137 1   
   135  133  134 1   
   136  133  136 1   
   137  133  138 1   
   138  134  135 2   
   139  134  142 1   
   140  136  139 1   
   141  136  140 1   
   142  136  141 1   
   143  142  143 1   
   144  142  147 1   
   145  143  144 1   
   146  143  146 1   
   147  143  148 1   
   148  144  145 2   
   149  144  152 1   
   150  146  149 1   
   151  146  150 1   
   152  146  151 1   
   153  152  153 1   
   154  152  161 1   
   155  153  154 1   
   156  153  156 1   
   157  153  162 1   
   158  154  155 2   
   159  154  167 1   
   160  156  157 1   
   161  156  163 1   
   162  156  164 1   
   163  157  158 1   
   164  157  165 1   
   165  157  166 1   
   166  158  159 1   
   167  158  160 1   
   168  167  168 1   
   169  167  172 1   
   170  168  169 1   
   171  168  170 1   
   172  168  171 1   
   173  174  175 1   
   174  174  176 1   
   175  177  178 1   
   176  177  179 1   
@<TRIPOS>SUBSTRUCTURE
     1 MOL         1 TEMP              0 ****  ****    0 ROOT
