@<TRIPOS>MOLECULE
MOL
  189   185     1     0     0
SMALL
resp


@<TRIPOS>ATOM
      1 C1          0.2430    3.8540    4.1700 c3        1 MOL     -0.445797
      2 C2         -0.5390    3.4550    2.8690 c         1 MOL      0.594062
      3 O1         -0.0290    3.7630    1.7980 o         1 MOL     -0.517992
      4 H1          1.2550    3.4530    4.1230 hc        1 MOL      0.120918
      5 H2          0.2850    4.9400    4.2500 hc        1 MOL      0.120918
      6 H3         -0.2680    3.4440    5.0420 hc        1 MOL      0.120918
      7 N1         -1.6390    2.7390    3.0000 n         1 MOL     -0.550113
      8 C3         -2.5010    2.2300    1.8890 c3        1 MOL      0.466159
      9 C4         -3.3260    3.2300    1.2180 c         1 MOL      0.275692
     10 O2         -4.5640    3.1760    1.2980 o         1 MOL     -0.465523
     11 C5         -3.2920    1.0010    2.4340 c3        1 MOL     -0.357687
     12 C6         -4.0150    0.1020    1.3750 c         1 MOL      0.633512
     13 O3         -3.6900    0.0930    0.1350 o         1 MOL     -0.618645
     14 O4         -4.9510   -0.6850    1.7520 o         1 MOL     -0.618645
     15 H4         -2.1300    2.5890    3.8690 hn        1 MOL      0.296520
     16 H5         -1.8360    1.7660    1.1640 h1        1 MOL     -0.013229
     17 H6         -3.9570    1.3570    3.2250 hc        1 MOL      0.087648
     18 H7         -2.5760    0.2680    2.7820 hc        1 MOL      0.087648
     19 N2         -2.7090    4.1660    0.5370 n         1 MOL     -0.254587
     20 C7         -3.2610    5.3030   -0.1750 c3        1 MOL     -0.072453
     21 C8         -4.0760    4.9350   -1.4690 c         1 MOL      0.436969
     22 O5         -4.8110    5.7790   -1.9990 o         1 MOL     -0.529629
     23 C9         -2.1230    6.2080   -0.4160 c3        1 MOL     -0.027321
     24 C10        -1.3810    6.7250    0.8240 c3        1 MOL      0.113206
     25 C11        -0.2480    7.5890    0.3810 c3        1 MOL      0.041306
     26 C12         0.8400    8.0240    1.3380 c3        1 MOL      0.073595
     27 N3          0.3690    8.6260    2.6030 n4        1 MOL     -0.439020
     28 H8         -1.7000    4.1990    0.6620 hn        1 MOL      0.255325
     29 H9         -3.9080    5.8390    0.5170 h1        1 MOL      0.104129
     30 H10        -2.4550    7.1280   -0.8910 hc        1 MOL      0.041454
     31 H11        -1.4750    5.5800   -1.0270 hc        1 MOL      0.041454
     32 H12        -1.0570    5.8820    1.4260 hc        1 MOL     -0.057983
     33 H13        -2.1670    7.3090    1.3140 hc        1 MOL     -0.057983
     34 H14        -0.6720    8.5000   -0.0410 hc        1 MOL      0.011868
     35 H15         0.1620    7.1640   -0.5440 hc        1 MOL      0.011868
     36 H16         1.5650    8.6680    0.8480 hx        1 MOL      0.074696
     37 H17         1.4140    7.1240    1.5630 hx        1 MOL      0.074696
     38 H18         0.0280    7.9470    3.2710 hn        1 MOL      0.342074
     39 H19         1.2180    8.9970    3.0010 hn        1 MOL      0.342074
     40 H20        -0.3270    9.3480    2.4730 hn        1 MOL      0.342074
     41 N4         -3.8990    3.7140   -2.0740 n         1 MOL     -0.388018
     42 C13        -4.8660    3.2060   -3.0950 c3        1 MOL      0.274004
     43 C14        -5.9120    2.3470   -2.3500 c         1 MOL      0.334147
     44 O6         -6.9690    2.1400   -2.9270 o         1 MOL     -0.549879
     45 C15        -4.1690    2.3580   -4.1640 c3        1 MOL     -0.462519
     46 C16        -3.2040    1.2990   -3.7400 c         1 MOL      0.839038
     47 O7         -3.1770    0.8960   -2.5660 o         1 MOL     -0.686337
     48 O8         -2.4640    0.8330   -4.6200 o         1 MOL     -0.686337
     49 H21        -3.3210    3.0280   -1.6140 hn        1 MOL      0.262659
     50 H22        -5.4100    4.0380   -3.5520 h1        1 MOL      0.063186
     51 H23        -3.6330    3.1350   -4.7010 hc        1 MOL      0.107609
     52 H24        -4.9030    2.0050   -4.8860 hc        1 MOL      0.107609
     53 N5         -5.7020    1.9220   -1.1370 n         1 MOL      0.036239
     54 C17        -6.8180    1.3710   -0.2480 c3        1 MOL     -0.140232
     55 C18        -7.4280    0.0020   -0.6350 c         1 MOL      0.472069
     56 O9         -8.6090   -0.2390   -0.7510 o         1 MOL     -0.560680
     57 H25        -4.8340    2.1220   -0.6660 hn        1 MOL     -0.006740
     58 H26        -7.6170    2.1060   -0.2890 h1        1 MOL      0.091049
     59 H27        -6.5020    1.4240    0.7920 h1        1 MOL      0.091049
     60 N6         -6.5110   -0.9460   -0.9370 n         1 MOL     -0.071291
     61 C19        -6.9100   -2.2850   -1.4500 c3        1 MOL      0.028172
     62 C20        -6.9270   -3.3820   -0.3940 c         1 MOL      0.356741
     63 O10        -7.5060   -4.4990   -0.6530 o         1 MOL     -0.546028
     64 C21        -5.9970   -2.6050   -2.6830 c3        1 MOL     -0.260961
     65 C22        -4.4860   -2.5060   -2.4090 c         1 MOL      0.851206
     66 O11        -4.0800   -2.8880   -1.2920 o         1 MOL     -0.746992
     67 O12        -3.6030   -2.2090   -3.1950 o         1 MOL     -0.746992
     68 H28        -5.5500   -0.6630   -0.7790 hn        1 MOL     -0.006951
     69 H29        -7.9100   -2.3460   -1.8770 h1        1 MOL      0.119301
     70 H30        -6.1760   -1.8220   -3.4250 hc        1 MOL      0.074516
     71 H31        -6.2400   -3.5950   -3.0600 hc        1 MOL      0.074516
     72 N7         -6.4590   -3.0480    0.8170 n         1 MOL     -0.163742
     73 C23        -6.4540   -3.9610    2.0230 c3        1 MOL     -0.112915
     74 C24        -5.0740   -4.5820    2.2280 c         1 MOL      0.598554
     75 O13        -4.9870   -5.5940    2.8470 o         1 MOL     -0.574737
     76 H32        -5.9860   -2.1570    0.8500 hn        1 MOL      0.148959
     77 H33        -7.1650   -4.7800    1.9530 h1        1 MOL      0.080962
     78 H34        -6.6620   -3.3350    2.8850 h1        1 MOL      0.080962
     79 N8         -4.0660   -3.9200    1.6950 n         1 MOL     -0.339877
     80 C25        -2.6590   -4.4110    1.6560 c3        1 MOL     -0.428333
     81 C26        -1.5620   -3.3440    1.5180 c         1 MOL      0.963188
     82 O14        -1.8030   -2.4450    0.7170 o         1 MOL     -0.647302
     83 C27        -2.5080   -5.4700    0.5340 c3        1 MOL      0.398452
     84 C28        -3.4280   -6.6070    0.4630 c3        1 MOL     -0.425622
     85 O15        -2.4430   -4.8170   -0.7470 oh        1 MOL     -0.639047
     86 H35        -4.3690   -3.1180    1.1610 hn        1 MOL      0.290197
     87 H36        -2.4120   -4.8170    2.6460 h1        1 MOL      0.149044
     88 H37        -1.4920   -5.8480    0.6650 h1        1 MOL      0.021060
     89 H38        -3.2330   -4.2910   -0.8570 ho        1 MOL      0.449631
     90 H39        -4.4820   -6.3450    0.4940 hc        1 MOL      0.120969
     91 H40        -3.3920   -7.3070   -0.3770 hc        1 MOL      0.120969
     92 H41        -3.2190   -7.1680    1.3730 hc        1 MOL      0.120969
     93 N9         -0.4640   -3.3940    2.3160 n         1 MOL     -0.770318
     94 C29         0.6880   -2.5280    2.2970 c3        1 MOL      0.154927
     95 C30         1.8620   -3.1690    1.6210 c         1 MOL      0.527352
     96 O16         2.1800   -4.3340    1.8340 o         1 MOL     -0.568644
     97 C31         1.0790   -2.2200    3.7740 c3        1 MOL      0.327277
     98 C32        -0.1020   -1.8540    4.6790 c3        1 MOL      0.122309
     99 C33         2.0350   -0.9820    3.7380 c3        1 MOL     -0.521758
    100 C34         0.3620   -1.3300    5.9820 c3        1 MOL     -0.047688
    101 H42        -0.5710   -4.0590    3.0590 hn        1 MOL      0.308128
    102 H43         0.3820   -1.6580    1.7170 h1        1 MOL      0.059780
    103 H44         1.6380   -3.0860    4.1140 hc        1 MOL     -0.053014
    104 H45        -0.6380   -2.7990    4.7880 hc        1 MOL     -0.045633
    105 H46        -0.7360   -1.1520    4.1360 hc        1 MOL     -0.045633
    106 H47         2.3320   -0.5540    4.6990 hc        1 MOL      0.091821
    107 H48         2.9460   -1.3320    3.2440 hc        1 MOL      0.091821
    108 H49         1.5500   -0.2190    3.1360 hc        1 MOL      0.091821
    109 H50         0.6970   -0.3010    6.0470 hc        1 MOL      0.004501
    110 H51        -0.4950   -1.4000    6.6560 hc        1 MOL      0.004501
    111 H52         1.1060   -2.0090    6.4010 hc        1 MOL      0.004501
    112 N10         2.5270   -2.3140    0.8010 n         1 MOL     -0.146862
    113 C35         3.7850   -2.6670    0.1240 c3        1 MOL     -0.031940
    114 C36         5.0440   -2.0120    0.7260 c         1 MOL      0.407015
    115 O17         4.9760   -1.1170    1.5460 o         1 MOL     -0.350582
    116 C37         3.6860   -2.2290   -1.3460 c3        1 MOL      0.155548
    117 C38         2.4940   -2.7620   -2.1250 c3        1 MOL     -0.450863
    118 O18         3.9400   -0.7970   -1.5820 oh        1 MOL     -0.443529
    119 H53         2.0800   -1.4240    0.6100 hn        1 MOL      0.142895
    120 H54         3.8960   -3.7480    0.1130 h1        1 MOL      0.077564
    121 H55         4.4980   -2.7540   -1.8430 h1        1 MOL      0.007010
    122 H56         3.3860   -0.5960   -2.3410 ho        1 MOL      0.404658
    123 H57         2.8230   -2.7740   -3.1630 hc        1 MOL      0.126878
    124 H58         2.1610   -3.7410   -1.7600 hc        1 MOL      0.126878
    125 H59         1.6230   -2.1180   -2.0430 hc        1 MOL      0.126878
    126 N11         6.1670   -2.5400    0.2600 n         1 MOL     -0.386396
    127 C39         7.5130   -1.9610    0.6100 c3        1 MOL     -0.032920
    128 C40         7.5510   -0.5390    0.3130 c         1 MOL      0.246342
    129 O19         8.1170    0.2450    1.0660 o         1 MOL     -0.492101
    130 C41         8.7130   -2.6740   -0.0140 c3        1 MOL      0.199012
    131 C42         9.0150   -4.0560    0.5650 c3        1 MOL     -0.521660
    132 O20         8.4340   -2.8940   -1.4060 oh        1 MOL     -0.558330
    133 H60         6.1890   -3.3320   -0.3600 hn        1 MOL      0.279073
    134 H61         7.6700   -2.1380    1.6770 h1        1 MOL      0.137455
    135 H62         9.5350   -1.9630    0.0430 h1        1 MOL      0.077855
    136 H63         8.7660   -3.7630   -1.6380 ho        1 MOL      0.380957
    137 H64         8.1270   -4.6870    0.6080 hc        1 MOL      0.161009
    138 H65         9.7120   -4.6030   -0.0640 hc        1 MOL      0.161009
    139 H66         9.5900   -3.9400    1.4860 hc        1 MOL      0.161009
    140 N12         6.9820   -0.1030   -0.8440 n         1 MOL      0.178430
    141 C43         6.8830    1.2270   -1.3470 c3        1 MOL     -0.037172
    142 C44         5.9680    2.1840   -0.7090 c         1 MOL      0.393673
    143 O21         6.1640    3.3900   -0.6600 o         1 MOL     -0.509740
    144 C45         6.6180    1.1700   -2.8120 c3        1 MOL     -0.237429
    145 C46         7.4430    0.1060   -3.6940 c3        1 MOL      0.155181
    146 C47         8.9160    0.1340   -3.4080 c3        1 MOL      0.113431
    147 C48         9.6680   -0.9500   -4.2390 c3        1 MOL      0.074640
    148 N13        11.1350   -0.7440   -4.2680 n4        1 MOL     -0.386039
    149 H67         6.6960   -0.8460   -1.4650 hn        1 MOL      0.081809
    150 H68         7.8460    1.6970   -1.1560 h1        1 MOL      0.041535
    151 H69         6.8030    2.1610   -3.2310 hc        1 MOL      0.092700
    152 H70         5.5970    0.9050   -3.1060 hc        1 MOL      0.092700
    153 H71         7.2380    0.2890   -4.7460 hc        1 MOL     -0.037984
    154 H72         7.1100   -0.9300   -3.5320 hc        1 MOL     -0.037984
    155 H73         9.0770   -0.1190   -2.3560 hc        1 MOL     -0.020741
    156 H74         9.2050    1.1700   -3.5880 hc        1 MOL     -0.020741
    157 H75         9.3210   -0.9800   -5.2640 hx        1 MOL      0.043288
    158 H76         9.5390   -1.8950   -3.7060 hx        1 MOL      0.043288
    159 H77        11.5610   -1.4230   -4.8810 hn        1 MOL      0.296742
    160 H78        11.3260    0.1770   -4.6570 hn        1 MOL      0.296742
    161 H79        11.4920   -0.9190   -3.3360 hn        1 MOL      0.296742
    162 N14         4.8260    1.6600   -0.2560 n         1 MOL      0.046900
    163 C49         3.9360    2.2560    0.7320 c3        1 MOL     -0.410340
    164 C50         4.5540    2.4860    2.1320 c         1 MOL      0.578355
    165 O22         4.3780    3.5630    2.7560 o         1 MOL     -0.567289
    166 C51         2.5340    1.4360    0.7760 c3        1 MOL      0.045036
    167 C52         1.7460    1.5360   -0.5340 c3        1 MOL     -0.175420
    168 C53         0.4090    0.7660   -0.5540 c         1 MOL      0.801597
    169 O23        -0.6160    1.3770   -0.9230 o         1 MOL     -0.753452
    170 O24         0.3690   -0.4040   -0.1770 o         1 MOL     -0.753452
    171 H80         4.7580    0.6600   -0.4030 hn        1 MOL     -0.122612
    172 H81         3.7550    3.1860    0.2080 h1        1 MOL      0.171546
    173 H82         1.8960    1.6700    1.6280 hc        1 MOL      0.085599
    174 H83         2.7830    0.4160    1.0660 hc        1 MOL      0.085599
    175 H84         2.2950    1.1950   -1.4110 hc        1 MOL      0.024418
    176 H85         1.4280    2.5690   -0.6890 hc        1 MOL      0.024418
    177 N15         5.3890    1.5520    2.7100 n         1 MOL     -0.200340
    178 C54         6.1460    1.7190    3.9830 c3        1 MOL     -0.297690
    179 H86         7.2060    1.5460    3.8000 h1        1 MOL      0.119541
    180 H87         6.0020    2.7310    4.3610 h1        1 MOL      0.119541
    181 H88         5.7830    1.0000    4.7180 h1        1 MOL      0.119541
    182 H89         5.5310    0.7080    2.1830 hn        1 MOL      0.213004
    183 Ca1        -1.9900   -0.9720   -1.3650 Ca        1 MOL      1.707408
    184 O25        -0.7150   -3.3540   -2.0240 oh        1 MOL     -0.802034
    185 H90        -0.5050   -3.6890   -2.8940 ho        1 MOL      0.377376
    186 H91        -1.2050   -4.0550   -1.6060 ho        1 MOL      0.377376
    187 O26        -0.6010   -0.5550   -3.6940 oh        1 MOL     -0.802034
    188 H92        -1.0300    0.0060   -4.3410 ho        1 MOL      0.377376
    189 H93        -0.7700   -1.4500   -3.9990 ho        1 MOL      0.377376
@<TRIPOS>BOND
     1    1    2 1   
     2    1    4 1   
     3    1    5 1   
     4    1    6 1   
     5    2    3 2   
     6    2    7 1   
     7    7    8 1   
     8    7   15 1   
     9    8    9 1   
    10    8   11 1   
    11    8   16 1   
    12    9   10 2   
    13    9   19 1   
    14   11   12 1   
    15   11   17 1   
    16   11   18 1   
    17   12   13 1   
    18   12   14 1   
    19   19   20 1   
    20   19   28 1   
    21   20   21 1   
    22   20   23 1   
    23   20   29 1   
    24   21   22 2   
    25   21   41 1   
    26   23   24 1   
    27   23   30 1   
    28   23   31 1   
    29   24   25 1   
    30   24   32 1   
    31   24   33 1   
    32   25   26 1   
    33   25   34 1   
    34   25   35 1   
    35   26   27 1   
    36   26   36 1   
    37   26   37 1   
    38   27   38 1   
    39   27   39 1   
    40   27   40 1   
    41   41   42 1   
    42   41   49 1   
    43   42   43 1   
    44   42   45 1   
    45   42   50 1   
    46   43   44 2   
    47   43   53 1   
    48   45   46 1   
    49   45   51 1   
    50   45   52 1   
    51   46   47 1   
    52   46   48 1   
    53   53   54 1   
    54   53   57 1   
    55   54   55 1   
    56   54   58 1   
    57   54   59 1   
    58   55   56 2   
    59   55   60 1   
    60   60   61 1   
    61   60   68 1   
    62   61   62 1   
    63   61   64 1   
    64   61   69 1   
    65   62   63 2   
    66   62   72 1   
    67   64   65 1   
    68   64   70 1   
    69   64   71 1   
    70   65   66 1   
    71   65   67 1   
    72   72   73 1   
    73   72   76 1   
    74   73   74 1   
    75   73   77 1   
    76   73   78 1   
    77   74   75 2   
    78   74   79 1   
    79   79   80 1   
    80   79   86 1   
    81   80   81 1   
    82   80   83 1   
    83   80   87 1   
    84   81   82 2   
    85   81   93 1   
    86   83   84 1   
    87   83   85 1   
    88   83   88 1   
    89   84   90 1   
    90   84   91 1   
    91   84   92 1   
    92   85   89 1   
    93   93   94 1   
    94   93  101 1   
    95   94   95 1   
    96   94   97 1   
    97   94  102 1   
    98   95   96 2   
    99   95  112 1   
   100   97   98 1   
   101   97   99 1   
   102   97  103 1   
   103   98  100 1   
   104   98  104 1   
   105   98  105 1   
   106   99  106 1   
   107   99  107 1   
   108   99  108 1   
   109  100  109 1   
   110  100  110 1   
   111  100  111 1   
   112  112  113 1   
   113  112  119 1   
   114  113  114 1   
   115  113  116 1   
   116  113  120 1   
   117  114  115 2   
   118  114  126 1   
   119  116  117 1   
   120  116  118 1   
   121  116  121 1   
   122  117  123 1   
   123  117  124 1   
   124  117  125 1   
   125  118  122 1   
   126  126  127 1   
   127  126  133 1   
   128  127  128 1   
   129  127  130 1   
   130  127  134 1   
   131  128  129 2   
   132  128  140 1   
   133  130  131 1   
   134  130  132 1   
   135  130  135 1   
   136  131  137 1   
   137  131  138 1   
   138  131  139 1   
   139  132  136 1   
   140  140  141 1   
   141  140  149 1   
   142  141  142 1   
   143  141  144 1   
   144  141  150 1   
   145  142  143 2   
   146  142  162 1   
   147  144  145 1   
   148  144  151 1   
   149  144  152 1   
   150  145  146 1   
   151  145  153 1   
   152  145  154 1   
   153  146  147 1   
   154  146  155 1   
   155  146  156 1   
   156  147  148 1   
   157  147  157 1   
   158  147  158 1   
   159  148  159 1   
   160  148  160 1   
   161  148  161 1   
   162  162  163 1   
   163  162  171 1   
   164  163  164 1   
   165  163  166 1   
   166  163  172 1   
   167  164  165 2   
   168  164  177 1   
   169  166  167 1   
   170  166  173 1   
   171  166  174 1   
   172  167  168 1   
   173  167  175 1   
   174  167  176 1   
   175  168  169 1   
   176  168  170 1   
   177  177  178 1   
   178  177  182 1   
   179  178  179 1   
   180  178  180 1   
   181  178  181 1   
   182  184  185 1   
   183  184  186 1   
   184  187  188 1   
   185  187  189 1   
@<TRIPOS>SUBSTRUCTURE
     1 MOL         1 TEMP              0 ****  ****    0 ROOT
