@<TRIPOS>MOLECULE
MOL
  176   174     1     0     0
SMALL
resp


@<TRIPOS>ATOM
      1 C1          2.2780    3.3040    4.3150 c3        1 MOL     -0.336974
      2 C2          1.3810    2.7490    3.2100 c         1 MOL      0.514807
      3 O1          1.8690    2.5270    2.0930 o         1 MOL     -0.429369
      4 H1          1.8450    3.0680    5.2870 hc        1 MOL      0.096123
      5 H2          3.2680    2.8540    4.2410 hc        1 MOL      0.096123
      6 H3          2.3610    4.3850    4.2090 hc        1 MOL      0.096123
      7 N1          0.0840    2.5860    3.4580 n         1 MOL     -0.389872
      8 C3         -0.8680    2.2850    2.3930 c3        1 MOL     -0.004544
      9 C4         -1.1480    3.6150    1.6590 c         1 MOL      0.446454
     10 O2         -2.0840    4.4170    1.8260 o         1 MOL     -0.551691
     11 C5         -2.2220    1.6630    2.9240 c3        1 MOL     -0.000931
     12 C6         -3.2030    1.1670    1.9010 c         1 MOL      0.690664
     13 O3         -2.7410    1.2430    0.7630 o         1 MOL     -0.642927
     14 O4         -4.2690    0.7390    2.2770 o         1 MOL     -0.642927
     15 H4         -0.2890    2.7490    4.3830 hn        1 MOL      0.291278
     16 H5         -0.3570    1.5950    1.7180 h1        1 MOL     -0.047499
     17 H6         -2.7820    2.4300    3.4700 hc        1 MOL      0.013291
     18 H7         -2.0970    0.9290    3.7130 hc        1 MOL      0.013291
     19 N2         -0.2890    3.9240    0.7410 n         1 MOL     -0.277580
     20 C7         -0.1580    5.2770    0.1110 c3        1 MOL     -0.077454
     21 C8         -1.3200    5.4930   -0.9500 c         1 MOL      0.510784
     22 O5         -1.3650    6.5510   -1.4880 o         1 MOL     -0.561313
     23 C9          1.2730    5.4160   -0.5050 c3        1 MOL     -0.156165
     24 C10         2.3170    5.5600    0.5200 c3        1 MOL      0.216923
     25 C11         3.7190    5.9010   -0.1090 c3        1 MOL     -0.296119
     26 C12         3.7750    7.2450   -0.8170 c3        1 MOL      0.149606
     27 N3          5.0290    7.5720   -1.4100 n4        1 MOL     -0.392223
     28 H8          0.4010    3.2330    0.4890 hn        1 MOL      0.302305
     29 H9         -0.2260    6.0620    0.8650 h1        1 MOL      0.100999
     30 H10         1.2070    6.3510   -1.0640 hc        1 MOL      0.049248
     31 H11         1.4590    4.5430   -1.1320 hc        1 MOL      0.049248
     32 H12         2.3990    4.6390    1.0890 hc        1 MOL     -0.020143
     33 H13         2.0260    6.4100    1.1520 hc        1 MOL     -0.020143
     34 H14         3.9850    5.1090   -0.8070 hc        1 MOL      0.104222
     35 H15         4.4060    5.9000    0.7320 hc        1 MOL      0.104222
     36 H16         3.6210    8.0170   -0.0570 hx        1 MOL      0.068647
     37 H17         2.9550    7.5000   -1.4860 hx        1 MOL      0.068647
     38 H18         5.8470    7.5060   -0.8090 hn        1 MOL      0.331935
     39 H19         5.2930    6.9690   -2.1750 hn        1 MOL      0.331935
     40 H20         5.0800    8.5000   -1.8030 hn        1 MOL      0.331935
     41 N4         -2.0090    4.4380   -1.2860 n         1 MOL     -0.161600
     42 C13        -3.1430    4.4320   -2.2120 c3        1 MOL      0.015102
     43 C14        -4.5120    4.0930   -1.6610 c         1 MOL      0.407517
     44 O6         -5.5930    4.4510   -2.2040 o         1 MOL     -0.525536
     45 C15        -2.8970    3.4560   -3.4240 c3        1 MOL     -0.135869
     46 C16        -2.6060    2.0140   -2.9850 c         1 MOL      0.798026
     47 O7         -1.5220    1.4720   -3.3560 o         1 MOL     -0.779693
     48 O8         -3.3690    1.4420   -2.2240 o         1 MOL     -0.779693
     49 H21        -1.7250    3.5420   -0.9260 hn        1 MOL      0.135429
     50 H22        -3.2530    5.4490   -2.5920 h1        1 MOL      0.094738
     51 H23        -2.0670    3.8620   -3.9940 hc        1 MOL      0.033077
     52 H24        -3.7960    3.5660   -4.0350 hc        1 MOL      0.033077
     53 N5         -4.6170    3.4840   -0.4480 n         1 MOL     -0.159886
     54 C17        -5.8970    3.1830    0.2810 c3        1 MOL     -0.163045
     55 C18        -6.7130    2.0510   -0.3580 c         1 MOL      0.571056
     56 O9         -7.9130    2.0800   -0.2630 o         1 MOL     -0.568747
     57 H25        -3.7860    3.0290   -0.0900 hn        1 MOL      0.064380
     58 H26        -6.4570    4.1080    0.3960 h1        1 MOL      0.115849
     59 H27        -5.6640    2.8620    1.3010 h1        1 MOL      0.115849
     60 N6         -6.0820    1.1010   -1.0570 n         1 MOL     -0.303800
     61 C19        -6.6820   -0.1680   -1.4270 c3        1 MOL      0.054075
     62 C20        -6.8650   -1.1000   -0.1880 c         1 MOL      0.352027
     63 O10        -7.5740   -2.0570   -0.2910 o         1 MOL     -0.516741
     64 C21        -5.8350   -0.8540   -2.4890 c3        1 MOL     -0.427490
     65 C22        -4.8590   -1.8860   -1.8540 c         1 MOL      0.725504
     66 N7         -4.9860   -3.1490   -2.0170 n         1 MOL     -0.781677
     67 O11        -3.9450   -1.4850   -1.1250 o         1 MOL     -0.668638
     68 H28        -5.1320    1.2520   -1.3660 hn        1 MOL      0.255069
     69 H29        -7.6720    0.0060   -1.8640 h1        1 MOL      0.109039
     70 H30        -5.2430   -0.1200   -3.0380 hc        1 MOL      0.146120
     71 H31        -6.4670   -1.4350   -3.1780 hc        1 MOL      0.146120
     72 H32        -5.8560   -3.5230   -2.3490 hn        1 MOL      0.382474
     73 H33        -4.3130   -3.6600   -1.4530 hn        1 MOL      0.382474
     74 N8         -6.2530   -0.7090    0.9570 n         1 MOL      0.019068
     75 C23        -6.3960   -1.3760    2.2650 c3        1 MOL     -0.408262
     76 C24        -5.3090   -2.4600    2.5780 c         1 MOL      0.611874
     77 O12        -5.4000   -3.1850    3.5730 o         1 MOL     -0.561344
     78 H34        -5.6990    0.1360    0.9860 hn        1 MOL      0.104990
     79 H35        -7.2450   -2.0570    2.2940 h1        1 MOL      0.167207
     80 H36        -6.4420   -0.6250    3.0650 h1        1 MOL      0.167207
     81 N9         -4.2200   -2.4560    1.7570 n         1 MOL     -0.323087
     82 C25        -3.0050   -3.2390    2.1360 c3        1 MOL      0.091464
     83 C26        -1.6280   -2.6630    1.8150 c         1 MOL      0.539089
     84 O13        -1.4640   -2.1120    0.7380 o         1 MOL     -0.658955
     85 C27        -3.0540   -4.7000    1.6540 c3        1 MOL     -0.086169
     86 C28        -3.0150   -5.0410    0.1870 ca        1 MOL      0.022122
     87 C29        -1.8390   -4.7080   -0.5740 ca        1 MOL     -0.071369
     88 C30        -3.9760   -5.8280   -0.3830 ca        1 MOL     -0.071369
     89 C31        -1.7420   -5.0860   -1.9320 ca        1 MOL     -0.313079
     90 C32        -3.8990   -6.2720   -1.7050 ca        1 MOL     -0.313079
     91 C33        -2.7900   -5.8650   -2.5240 ca        1 MOL      0.325885
     92 O14        -2.7680   -6.2060   -3.8240 oh        1 MOL     -0.459780
     93 H37        -4.2640   -1.8700    0.9340 hn        1 MOL      0.173537
     94 H38        -3.0630   -3.4350    3.2040 h1        1 MOL      0.048645
     95 H39        -4.0020   -5.1010    2.0270 hc        1 MOL      0.048043
     96 H40        -2.2830   -5.2040    2.2370 hc        1 MOL      0.048043
     97 H41        -1.0240   -4.1780   -0.1080 ha        1 MOL      0.120701
     98 H42        -4.8410   -6.0170    0.2420 ha        1 MOL      0.120701
     99 H43        -1.0050   -4.6380   -2.5770 ha        1 MOL      0.156330
    100 H44        -4.7510   -6.7500   -2.1520 ha        1 MOL      0.156330
    101 H45        -1.9770   -5.8190   -4.2050 ho        1 MOL      0.346082
    102 N10        -0.5980   -2.7510    2.6930 n         1 MOL     -0.557886
    103 C34         0.8120   -2.3390    2.3420 c3        1 MOL     -0.003258
    104 C35         1.4100   -3.2800    1.3660 c         1 MOL      0.492269
    105 O15         1.2210   -4.4770    1.5220 o         1 MOL     -0.510527
    106 C36         1.6700   -2.0970    3.6380 c3        1 MOL      0.276084
    107 C37         0.9190   -1.1550    4.5600 c3        1 MOL      0.055859
    108 C38         3.0390   -1.6110    3.2570 c3        1 MOL     -0.161912
    109 C39         1.6550   -1.0200    5.8930 c3        1 MOL     -0.213079
    110 H46        -0.8340   -3.0770    3.6230 hn        1 MOL      0.321161
    111 H47         0.6790   -1.3500    1.9120 h1        1 MOL      0.143007
    112 H48         1.7930   -3.0730    4.1150 hc        1 MOL     -0.027901
    113 H49        -0.0920   -1.5460    4.7020 hc        1 MOL     -0.022178
    114 H50         0.8490   -0.1980    4.0470 hc        1 MOL     -0.022178
    115 H51         3.0350   -0.7000    2.6660 hc        1 MOL      0.012992
    116 H52         3.6470   -1.4530    4.1410 hc        1 MOL      0.012992
    117 H53         3.5590   -2.3480    2.6410 hc        1 MOL      0.012992
    118 H54         1.8100   -2.0170    6.2880 hc        1 MOL      0.051644
    119 H55         2.6410   -0.5870    5.7540 hc        1 MOL      0.051644
    120 H56         1.1440   -0.3960    6.6200 hc        1 MOL      0.051644
    121 N11         2.2070   -2.7420    0.3770 n         1 MOL     -0.317045
    122 C40         3.2210   -3.4550   -0.4910 c3        1 MOL      0.251534
    123 C41         4.7080   -3.2680   -0.0870 c         1 MOL      0.272295
    124 O16         5.0080   -2.3650    0.6260 o         1 MOL     -0.261753
    125 C42         3.0830   -3.1720   -1.9910 c3        1 MOL     -0.219053
    126 O17         3.7010   -1.9950   -2.3350 oh        1 MOL     -0.436941
    127 H57         2.1950   -1.7260    0.3700 hn        1 MOL      0.200945
    128 H58         3.0010   -4.5020   -0.3020 h1        1 MOL      0.001152
    129 H59         2.0290   -3.0630   -2.2510 h1        1 MOL      0.095233
    130 H60         3.4460   -4.0760   -2.4850 h1        1 MOL      0.095233
    131 H61         3.0980   -1.4650   -2.8580 ho        1 MOL      0.428715
    132 N12         5.6290   -4.1240   -0.6130 n         1 MOL     -0.319916
    133 C43         7.0590   -3.8840   -0.4500 c3        1 MOL     -0.015515
    134 C44         7.5300   -2.5160   -1.0320 c         1 MOL      0.547174
    135 O18         8.3100   -1.8330   -0.3630 o         1 MOL     -0.503141
    136 C45         7.9330   -5.0020   -1.0580 c3        1 MOL     -0.291578
    137 H62         5.3210   -4.9710   -1.0670 hn        1 MOL      0.277889
    138 H63         7.2160   -3.8980    0.6220 h1        1 MOL      0.118122
    139 H64         7.5940   -5.3140   -2.0400 hc        1 MOL      0.097199
    140 H65         8.9860   -4.7960   -1.2530 hc        1 MOL      0.097199
    141 H66         7.8430   -5.9050   -0.4350 hc        1 MOL      0.097199
    142 N13         7.0600   -2.1190   -2.2430 n         1 MOL     -0.469539
    143 C46         7.2250   -0.7950   -2.9100 c3        1 MOL      0.186545
    144 C47         6.7610    0.3650   -1.9810 c         1 MOL      0.363694
    145 O19         7.4950    1.3500   -1.7420 o         1 MOL     -0.524223
    146 C48         6.5290   -0.7400   -4.2600 c3        1 MOL     -0.223659
    147 H67         6.3120   -2.6830   -2.6200 hn        1 MOL      0.264092
    148 H68         8.2980   -0.6400   -3.0220 h1        1 MOL      0.068322
    149 H69         5.4840   -0.7510   -3.9600 hc        1 MOL      0.060019
    150 H70         6.8790    0.1450   -4.7770 hc        1 MOL      0.060019
    151 H71         6.6230   -1.7040   -4.7730 hc        1 MOL      0.060019
    152 N14         5.6470    0.1740   -1.3020 n         1 MOL     -0.067629
    153 C49         5.1960    1.1000   -0.2470 c3        1 MOL     -0.058086
    154 C50         6.0480    1.2170    1.0210 c         1 MOL      0.482478
    155 O20         6.3280    2.2970    1.5060 o         1 MOL     -0.578451
    156 C51         3.7610    0.7020    0.0930 c3        1 MOL      0.247444
    157 C52         2.8060    1.1930   -0.9520 c3        1 MOL     -0.176579
    158 C53         1.2790    0.9110   -0.6020 c         1 MOL      0.790280
    159 O21         0.8390   -0.2300   -0.4210 o         1 MOL     -0.761249
    160 O22         0.3630    1.7050   -0.8980 o         1 MOL     -0.761249
    161 H72         5.0370   -0.6160   -1.4760 hn        1 MOL      0.044662
    162 H73         5.1690    2.1160   -0.6510 h1        1 MOL      0.028502
    163 H74         3.4240    1.1710    1.0110 hc        1 MOL     -0.077733
    164 H75         3.6300   -0.3740    0.1720 hc        1 MOL     -0.077733
    165 H76         3.0460    0.7720   -1.9260 hc        1 MOL      0.005481
    166 H77         3.0000    2.2660   -1.0060 hc        1 MOL      0.005481
    167 N15         6.3830    0.0610    1.5230 n         1 MOL     -0.022074
    168 C54         7.2260   -0.0850    2.7080 c3        1 MOL     -0.213111
    169 H78         6.6000   -0.0920    3.6000 h1        1 MOL      0.091532
    170 H79         7.7810   -1.0220    2.6470 h1        1 MOL      0.091532
    171 H80         7.9250    0.7490    2.7620 h1        1 MOL      0.091532
    172 H81         6.0380   -0.7320    1.0020 hn        1 MOL      0.014163
    173 Ca1        -1.5280   -0.0140   -1.0190 Ca        1 MOL      1.782160
    174 O23        -1.2350   -1.7570   -3.2180 oh        1 MOL     -0.821086
    175 H82        -1.8590   -2.0770   -3.8540 ho        1 MOL      0.409889
    176 H83        -0.3740   -1.9010   -3.6170 ho        1 MOL      0.409889
@<TRIPOS>BOND
     1    1    2 1   
     2    1    4 1   
     3    1    5 1   
     4    1    6 1   
     5    2    3 2   
     6    2    7 1   
     7    7    8 1   
     8    7   15 1   
     9    8    9 1   
    10    8   11 1   
    11    8   16 1   
    12    9   10 2   
    13    9   19 1   
    14   11   12 1   
    15   11   17 1   
    16   11   18 1   
    17   12   13 1   
    18   12   14 1   
    19   19   20 1   
    20   19   28 1   
    21   20   21 1   
    22   20   23 1   
    23   20   29 1   
    24   21   22 2   
    25   21   41 1   
    26   23   24 1   
    27   23   30 1   
    28   23   31 1   
    29   24   25 1   
    30   24   32 1   
    31   24   33 1   
    32   25   26 1   
    33   25   34 1   
    34   25   35 1   
    35   26   27 1   
    36   26   36 1   
    37   26   37 1   
    38   27   38 1   
    39   27   39 1   
    40   27   40 1   
    41   41   42 1   
    42   41   49 1   
    43   42   43 1   
    44   42   45 1   
    45   42   50 1   
    46   43   44 2   
    47   43   53 1   
    48   45   46 1   
    49   45   51 1   
    50   45   52 1   
    51   46   47 1   
    52   46   48 1   
    53   53   54 1   
    54   53   57 1   
    55   54   55 1   
    56   54   58 1   
    57   54   59 1   
    58   55   56 2   
    59   55   60 1   
    60   60   61 1   
    61   60   68 1   
    62   61   62 1   
    63   61   64 1   
    64   61   69 1   
    65   62   63 2   
    66   62   74 1   
    67   64   65 1   
    68   64   70 1   
    69   64   71 1   
    70   65   66 1   
    71   65   67 2   
    72   66   72 1   
    73   66   73 1   
    74   74   75 1   
    75   74   78 1   
    76   75   76 1   
    77   75   79 1   
    78   75   80 1   
    79   76   77 2   
    80   76   81 1   
    81   81   82 1   
    82   81   93 1   
    83   82   83 1   
    84   82   85 1   
    85   82   94 1   
    86   83   84 2   
    87   83  102 1   
    88   85   86 1   
    89   85   95 1   
    90   85   96 1   
    91   86   87 ar  
    92   86   88 ar  
    93   87   89 ar  
    94   87   97 1   
    95   88   90 ar  
    96   88   98 1   
    97   89   91 ar  
    98   89   99 1   
    99   90   91 ar  
   100   90  100 1   
   101   91   92 1   
   102   92  101 1   
   103  102  103 1   
   104  102  110 1   
   105  103  104 1   
   106  103  106 1   
   107  103  111 1   
   108  104  105 2   
   109  104  121 1   
   110  106  107 1   
   111  106  108 1   
   112  106  112 1   
   113  107  109 1   
   114  107  113 1   
   115  107  114 1   
   116  108  115 1   
   117  108  116 1   
   118  108  117 1   
   119  109  118 1   
   120  109  119 1   
   121  109  120 1   
   122  121  122 1   
   123  121  127 1   
   124  122  123 1   
   125  122  125 1   
   126  122  128 1   
   127  123  124 2   
   128  123  132 1   
   129  125  126 1   
   130  125  129 1   
   131  125  130 1   
   132  126  131 1   
   133  132  133 1   
   134  132  137 1   
   135  133  134 1   
   136  133  136 1   
   137  133  138 1   
   138  134  135 2   
   139  134  142 1   
   140  136  139 1   
   141  136  140 1   
   142  136  141 1   
   143  142  143 1   
   144  142  147 1   
   145  143  144 1   
   146  143  146 1   
   147  143  148 1   
   148  144  145 2   
   149  144  152 1   
   150  146  149 1   
   151  146  150 1   
   152  146  151 1   
   153  152  153 1   
   154  152  161 1   
   155  153  154 1   
   156  153  156 1   
   157  153  162 1   
   158  154  155 2   
   159  154  167 1   
   160  156  157 1   
   161  156  163 1   
   162  156  164 1   
   163  157  158 1   
   164  157  165 1   
   165  157  166 1   
   166  158  159 1   
   167  158  160 1   
   168  167  168 1   
   169  167  172 1   
   170  168  169 1   
   171  168  170 1   
   172  168  171 1   
   173  174  175 1   
   174  174  176 1   
@<TRIPOS>SUBSTRUCTURE
     1 MOL         1 TEMP              0 ****  ****    0 ROOT
