@<TRIPOS>MOLECULE
MOL
  182   178     1     0     0
SMALL
resp


@<TRIPOS>ATOM
      1 C1         -1.2760   -3.0950    5.8100 c3        1 MOL     -0.271441
      2 C2         -0.9050   -2.7590    4.3660 c         1 MOL      0.765937
      3 O1         -1.6650   -3.0820    3.4470 o         1 MOL     -0.617282
      4 H1         -0.6550   -3.9190    6.1620 hc        1 MOL      0.066830
      5 H2         -1.1110   -2.2200    6.4410 hc        1 MOL      0.066830
      6 H3         -2.3260   -3.3850    5.8580 hc        1 MOL      0.066830
      7 N1          0.3270   -2.2630    4.2060 n         1 MOL     -0.637151
      8 C3          0.9380   -2.2090    2.8940 c3        1 MOL      0.083904
      9 C4          0.9250   -3.5860    2.2500 c         1 MOL      0.592129
     10 O2          1.4700   -4.5090    2.8210 o         1 MOL     -0.577701
     11 C5          2.3810   -1.6400    3.0270 c3        1 MOL     -0.148403
     12 C6          3.0380   -1.2530    1.6830 c         1 MOL      0.757203
     13 O3          2.4340   -1.5130    0.6420 o         1 MOL     -0.721846
     14 O4          4.1440   -0.6270    1.7310 o         1 MOL     -0.721846
     15 H4          0.9310   -1.9770    4.9690 hn        1 MOL      0.340827
     16 H5          0.3990   -1.5030    2.2510 h1        1 MOL     -0.035614
     17 H6          3.0140   -2.3030    3.6130 hc        1 MOL      0.056478
     18 H7          2.3550   -0.7420    3.6430 hc        1 MOL      0.056478
     19 N2          0.4740   -3.6610    0.9990 n         1 MOL     -0.132310
     20 C7          0.3500   -4.9240    0.2620 c3        1 MOL     -0.208545
     21 C8          1.6210   -5.4450   -0.3980 c         1 MOL      0.546900
     22 O5          1.8310   -6.6610   -0.5510 o         1 MOL     -0.563373
     23 C9         -0.8220   -4.8870   -0.6660 c3        1 MOL      0.008265
     24 C10        -2.1160   -4.7590    0.1210 c3        1 MOL      0.109202
     25 C11        -3.2370   -5.3640   -0.8150 c3        1 MOL     -0.454464
     26 C12        -4.5800   -5.4720   -0.1440 c3        1 MOL      0.281609
     27 N3         -5.4490   -6.2160   -1.0730 n4        1 MOL     -0.424656
     28 H8          0.2390   -2.8050    0.5240 hn        1 MOL      0.087484
     29 H9          0.0170   -5.6390    1.0170 h1        1 MOL      0.095953
     30 H10        -0.7510   -5.8260   -1.2180 hc        1 MOL      0.022017
     31 H11        -0.6900   -4.0400   -1.3370 hc        1 MOL      0.022017
     32 H12        -2.4300   -3.7380    0.3420 hc        1 MOL      0.059105
     33 H13        -2.0450   -5.2210    1.1040 hc        1 MOL      0.059105
     34 H14        -2.9140   -6.3200   -1.2160 hc        1 MOL      0.115733
     35 H15        -3.3810   -4.6520   -1.6330 hc        1 MOL      0.115733
     36 H16        -4.9860   -4.4600   -0.0710 hx        1 MOL      0.047322
     37 H17        -4.5720   -5.8230    0.8900 hx        1 MOL      0.047322
     38 H18        -5.2540   -5.8600   -2.0060 hn        1 MOL      0.336001
     39 H19        -5.1490   -7.1750   -1.1380 hn        1 MOL      0.336001
     40 H20        -6.4130   -6.1640   -0.7580 hn        1 MOL      0.336001
     41 N4          2.5670   -4.5860   -0.7580 n         1 MOL     -0.397794
     42 C13         3.8440   -4.8230   -1.3890 c3        1 MOL      0.166158
     43 C14         5.1340   -4.3060   -0.6900 c         1 MOL      0.327159
     44 O6          6.2190   -4.7790   -1.0820 o         1 MOL     -0.505602
     45 C15         3.7610   -4.5450   -2.8460 c3        1 MOL     -0.399989
     46 C16         3.1080   -3.1340   -3.1610 c         1 MOL      0.838490
     47 O7          2.9340   -2.2630   -2.2690 o         1 MOL     -0.733386
     48 O8          2.7430   -2.8860   -4.3610 o         1 MOL     -0.733386
     49 H21         2.2750   -3.6170   -0.6970 hn        1 MOL      0.298758
     50 H22         3.9330   -5.9010   -1.2530 h1        1 MOL      0.098369
     51 H23         3.1410   -5.3280   -3.2920 hc        1 MOL      0.116572
     52 H24         4.7720   -4.5690   -3.2320 hc        1 MOL      0.116572
     53 N5          5.0780   -3.4460    0.3330 n         1 MOL     -0.049345
     54 C17         6.3030   -2.9680    0.9940 c3        1 MOL     -0.277004
     55 C18         6.8720   -1.7800    0.2550 c         1 MOL      0.554081
     56 O9          8.0500   -1.3770    0.4530 o         1 MOL     -0.548252
     57 H25         4.1460   -3.1900    0.6450 hn        1 MOL      0.087630
     58 H26         7.0720   -3.7370    1.0590 h1        1 MOL      0.141609
     59 H27         5.9040   -2.5850    1.9310 h1        1 MOL      0.141609
     60 N6          6.0330   -1.0920   -0.5620 n         1 MOL     -0.222229
     61 C19         6.4810    0.0910   -1.2490 c3        1 MOL     -0.006616
     62 C20         6.6180    1.2510   -0.2080 c         1 MOL      0.255946
     63 O10         7.4170    2.1610   -0.4300 o         1 MOL     -0.498392
     64 C21         5.5880    0.3920   -2.4070 c3        1 MOL     -0.082553
     65 C22         4.4100    1.3070   -2.1620 c         1 MOL      0.245543
     66 N7          4.3690    2.3870   -2.7810 n         1 MOL     -0.356435
     67 O11         3.5150    1.0090   -1.4170 o         1 MOL     -0.263976
     68 H28         5.0780   -1.3670   -0.4250 hn        1 MOL      0.058858
     69 H29         7.4920   -0.0050   -1.6490 h1        1 MOL      0.107480
     70 H30         5.1900   -0.5060   -2.8720 hc        1 MOL      0.065224
     71 H31         6.2850    0.7530   -3.1680 hc        1 MOL      0.065224
     72 H32         4.9560    2.4930   -3.5930 hn        1 MOL      0.253716
     73 H33         3.5420    2.9510   -2.6130 hn        1 MOL      0.253716
     74 N8          5.8300    1.2600    0.8370 n         1 MOL      0.073868
     75 C23         5.8320    2.2350    1.9550 c3        1 MOL     -0.327441
     76 C24         4.4660    2.9970    2.1210 c         1 MOL      0.660771
     77 O12         4.4580    3.9610    2.8930 o         1 MOL     -0.562357
     78 H34         5.3040    0.4200    1.0340 hn        1 MOL      0.185514
     79 H35         6.6790    2.9060    1.8400 h1        1 MOL      0.136407
     80 H36         5.9630    1.6830    2.8860 h1        1 MOL      0.136407
     81 N9          3.4850    2.5870    1.3180 n         1 MOL     -0.459902
     82 C25         2.2670    3.2890    1.0070 c3        1 MOL      0.394041
     83 C26         1.0160    2.4100    0.9620 c         1 MOL      0.289656
     84 O13         1.0180    1.3010    0.3670 o         1 MOL     -0.458452
     85 C27         2.4590    4.1460   -0.3000 c3        1 MOL      0.031654
     86 C28         3.6230    5.1090   -0.2470 ca        1 MOL      0.130004
     87 C29         4.9320    4.7070   -0.4980 ca        1 MOL     -0.262995
     88 C30         3.2810    6.4470   -0.0630 ca        1 MOL     -0.262995
     89 C31         5.9410    5.6810   -0.4050 ca        1 MOL     -0.156960
     90 C32         4.2700    7.3950    0.0930 ca        1 MOL     -0.156960
     91 C33         5.6370    6.9820   -0.1130 ca        1 MOL      0.270900
     92 O14         6.6870    7.9060   -0.0600 oh        1 MOL     -0.477707
     93 H37         3.5530    1.6610    0.9130 hn        1 MOL      0.134114
     94 H38         2.1830    3.9710    1.8580 h1        1 MOL     -0.041283
     95 H39         1.5580    4.6850   -0.5710 hc        1 MOL     -0.041394
     96 H40         2.7480    3.4360   -1.0790 hc        1 MOL     -0.041394
     97 H41         5.0360    3.6580   -0.7200 ha        1 MOL      0.126136
     98 H42         2.2490    6.7550    0.0230 ha        1 MOL      0.126136
     99 H43         6.9430    5.3470   -0.6470 ha        1 MOL      0.130393
    100 H44         4.0330    8.4390    0.2640 ha        1 MOL      0.130393
    101 H45         6.3650    8.7850    0.1480 ho        1 MOL      0.346269
    102 N10        -0.1580    2.9410    1.4090 n         1 MOL     -0.419837
    103 C34        -1.4460    2.3790    1.4560 c3        1 MOL      0.011594
    104 C35        -2.3890    3.2500    0.6420 c         1 MOL      0.481101
    105 O15        -2.6430    4.4090    0.9970 o         1 MOL     -0.537884
    106 C36        -1.7530    2.2360    2.9630 c3        1 MOL      0.035193
    107 C37        -0.7870    1.2630    3.7390 c3        1 MOL      0.160229
    108 C38        -3.2600    1.8400    3.1390 c3        1 MOL     -0.192867
    109 C39        -1.0420    1.3040    5.2400 c3        1 MOL     -0.412458
    110 H46        -0.1520    3.8550    1.8420 hn        1 MOL      0.273478
    111 H47        -1.4410    1.3590    1.0730 h1        1 MOL      0.106360
    112 H48        -1.6060    3.1790    3.4740 hc        1 MOL      0.030967
    113 H49         0.2520    1.5520    3.5720 hc        1 MOL      0.005800
    114 H50        -0.9020    0.2350    3.3750 hc        1 MOL      0.005800
    115 H51        -3.5460    1.7180    4.1810 hc        1 MOL      0.047395
    116 H52        -3.8650    2.6540    2.7490 hc        1 MOL      0.047395
    117 H53        -3.4610    0.9280    2.5680 hc        1 MOL      0.047395
    118 H54        -1.1430    2.3240    5.5910 hc        1 MOL      0.099912
    119 H55        -2.0390    0.8790    5.4190 hc        1 MOL      0.099912
    120 H56        -0.2160    0.9300    5.8450 hc        1 MOL      0.099912
    121 N11        -2.9700    2.7370   -0.4310 n         1 MOL     -0.233619
    122 C40        -3.9670    3.4660   -1.2110 c3        1 MOL     -0.041991
    123 C41        -5.3840    3.2490   -0.6830 c         1 MOL      0.455466
    124 O16        -5.5770    2.3730    0.1810 o         1 MOL     -0.345140
    125 C42        -3.8890    2.9830   -2.6450 c3        1 MOL     -0.178460
    126 O17        -4.0130    1.5670   -2.7170 oh        1 MOL     -0.425392
    127 H57        -2.7590    1.7840   -0.7000 hn        1 MOL      0.249966
    128 H58        -3.8760    4.5570   -1.2500 h1        1 MOL      0.093189
    129 H59        -2.9300    3.1680   -3.1230 h1        1 MOL      0.107392
    130 H60        -4.6630    3.4510   -3.2680 h1        1 MOL      0.107392
    131 H61        -3.2430    1.2630   -3.2040 ho        1 MOL      0.372752
    132 N12        -6.3710    3.9800   -1.2120 n         1 MOL     -0.426909
    133 C43        -7.8030    3.8360   -0.7500 c3        1 MOL      0.028246
    134 C44        -8.3540    2.3530   -0.9700 c         1 MOL      0.495085
    135 O18        -9.1070    1.8660   -0.1120 o         1 MOL     -0.492644
    136 C45        -8.8290    4.8530   -1.3200 c3        1 MOL     -0.143360
    137 H62        -6.1640    4.6470   -1.9400 hn        1 MOL      0.304502
    138 H63        -7.7690    4.0340    0.3180 h1        1 MOL      0.105547
    139 H64        -9.7440    4.9530   -0.7300 hc        1 MOL      0.057577
    140 H65        -8.4590    5.8650   -1.4850 hc        1 MOL      0.057577
    141 H66        -9.0130    4.4580   -2.3270 hc        1 MOL      0.057577
    142 N13        -7.8340    1.6770   -2.0300 n         1 MOL     -0.467683
    143 C46        -7.9280    0.1980   -2.2750 c3        1 MOL      0.148207
    144 C47        -7.2020   -0.6080   -1.2160 c         1 MOL      0.372882
    145 O19        -7.7690   -1.5950   -0.8190 o         1 MOL     -0.535599
    146 C48        -7.2850   -0.1710   -3.6130 c3        1 MOL     -0.300435
    147 H67        -7.2130    2.2080   -2.6160 hn        1 MOL      0.305518
    148 H68        -8.9810   -0.0840   -2.2420 h1        1 MOL      0.090943
    149 H69        -7.7920    0.2890   -4.4510 hc        1 MOL      0.082129
    150 H70        -6.2440    0.1490   -3.5510 hc        1 MOL      0.082129
    151 H71        -7.3610   -1.2610   -3.6860 hc        1 MOL      0.082129
    152 N14        -5.9990   -0.2990   -0.7400 n         1 MOL     -0.018790
    153 C49        -5.3530   -1.1470    0.2660 c3        1 MOL     -0.385749
    154 C50        -5.9990   -0.9750    1.6590 c         1 MOL      0.477264
    155 O20        -5.7540   -1.7700    2.5800 o         1 MOL     -0.547199
    156 C51        -3.8170   -0.7900    0.2970 c3        1 MOL      0.039665
    157 C52        -3.0740   -1.2540   -0.9470 c3        1 MOL      0.105171
    158 C53        -1.5980   -0.8590   -0.9960 c         1 MOL      0.540497
    159 O21        -1.2330    0.2740   -1.3740 o         1 MOL     -0.643222
    160 O22        -0.7260   -1.6280   -0.5620 o         1 MOL     -0.643222
    161 H72        -5.5130    0.5530   -0.9890 hn        1 MOL      0.073798
    162 H73        -5.4390   -2.2030    0.0120 h1        1 MOL      0.160872
    163 H74        -3.4220   -1.3170    1.1690 hc        1 MOL      0.053061
    164 H75        -3.6630    0.2790    0.4090 hc        1 MOL      0.053061
    165 H76        -3.5060   -0.7390   -1.8060 hc        1 MOL     -0.066791
    166 H77        -3.2480   -2.3130   -1.1500 hc        1 MOL     -0.066791
    167 N15        -6.7040    0.1270    1.7680 n         1 MOL     -0.024879
    168 C54        -7.4730    0.5160    2.9860 c3        1 MOL     -0.250935
    169 H78        -7.9220    1.4970    2.8350 h1        1 MOL      0.106250
    170 H79        -8.2580   -0.2170    3.1700 h1        1 MOL      0.106250
    171 H80        -6.8020    0.5530    3.8440 h1        1 MOL      0.106250
    172 H81        -6.5830    0.8840    1.1110 hn        1 MOL      0.064837
    173 Ca1         1.3310   -0.5100   -1.5020 Ca        1 MOL      1.778815
    174 O23         0.2330   -2.3580   -3.2040 oh        1 MOL     -0.919875
    175 H82        -0.5790   -2.3150   -3.6920 ho        1 MOL      0.425312
    176 H83         0.8280   -2.8540   -3.7690 ho        1 MOL      0.425312
    177 O24         2.5920   -0.1890   -4.1320 oh        1 MOL     -0.919875
    178 H84         2.7830   -1.1170   -3.9830 ho        1 MOL      0.425312
    179 H85         2.7010   -0.0710   -5.0720 ho        1 MOL      0.425312
    180 O25         0.7440    1.8080   -2.8970 oh        1 MOL     -0.919875
    181 H86         0.4730    2.7220   -2.7840 ho        1 MOL      0.425312
    182 H87         1.2540    1.8070   -3.7020 ho        1 MOL      0.425312
@<TRIPOS>BOND
     1    1    2 1   
     2    1    4 1   
     3    1    5 1   
     4    1    6 1   
     5    2    3 2   
     6    2    7 1   
     7    7    8 1   
     8    7   15 1   
     9    8    9 1   
    10    8   11 1   
    11    8   16 1   
    12    9   10 2   
    13    9   19 1   
    14   11   12 1   
    15   11   17 1   
    16   11   18 1   
    17   12   13 1   
    18   12   14 1   
    19   19   20 1   
    20   19   28 1   
    21   20   21 1   
    22   20   23 1   
    23   20   29 1   
    24   21   22 2   
    25   21   41 1   
    26   23   24 1   
    27   23   30 1   
    28   23   31 1   
    29   24   25 1   
    30   24   32 1   
    31   24   33 1   
    32   25   26 1   
    33   25   34 1   
    34   25   35 1   
    35   26   27 1   
    36   26   36 1   
    37   26   37 1   
    38   27   38 1   
    39   27   39 1   
    40   27   40 1   
    41   41   42 1   
    42   41   49 1   
    43   42   43 1   
    44   42   45 1   
    45   42   50 1   
    46   43   44 2   
    47   43   53 1   
    48   45   46 1   
    49   45   51 1   
    50   45   52 1   
    51   46   47 1   
    52   46   48 1   
    53   53   54 1   
    54   53   57 1   
    55   54   55 1   
    56   54   58 1   
    57   54   59 1   
    58   55   56 2   
    59   55   60 1   
    60   60   61 1   
    61   60   68 1   
    62   61   62 1   
    63   61   64 1   
    64   61   69 1   
    65   62   63 2   
    66   62   74 1   
    67   64   65 1   
    68   64   70 1   
    69   64   71 1   
    70   65   66 1   
    71   65   67 2   
    72   66   72 1   
    73   66   73 1   
    74   74   75 1   
    75   74   78 1   
    76   75   76 1   
    77   75   79 1   
    78   75   80 1   
    79   76   77 2   
    80   76   81 1   
    81   81   82 1   
    82   81   93 1   
    83   82   83 1   
    84   82   85 1   
    85   82   94 1   
    86   83   84 2   
    87   83  102 1   
    88   85   86 1   
    89   85   95 1   
    90   85   96 1   
    91   86   87 ar  
    92   86   88 ar  
    93   87   89 ar  
    94   87   97 1   
    95   88   90 ar  
    96   88   98 1   
    97   89   91 ar  
    98   89   99 1   
    99   90   91 ar  
   100   90  100 1   
   101   91   92 1   
   102   92  101 1   
   103  102  103 1   
   104  102  110 1   
   105  103  104 1   
   106  103  106 1   
   107  103  111 1   
   108  104  105 2   
   109  104  121 1   
   110  106  107 1   
   111  106  108 1   
   112  106  112 1   
   113  107  109 1   
   114  107  113 1   
   115  107  114 1   
   116  108  115 1   
   117  108  116 1   
   118  108  117 1   
   119  109  118 1   
   120  109  119 1   
   121  109  120 1   
   122  121  122 1   
   123  121  127 1   
   124  122  123 1   
   125  122  125 1   
   126  122  128 1   
   127  123  124 2   
   128  123  132 1   
   129  125  126 1   
   130  125  129 1   
   131  125  130 1   
   132  126  131 1   
   133  132  133 1   
   134  132  137 1   
   135  133  134 1   
   136  133  136 1   
   137  133  138 1   
   138  134  135 2   
   139  134  142 1   
   140  136  139 1   
   141  136  140 1   
   142  136  141 1   
   143  142  143 1   
   144  142  147 1   
   145  143  144 1   
   146  143  146 1   
   147  143  148 1   
   148  144  145 2   
   149  144  152 1   
   150  146  149 1   
   151  146  150 1   
   152  146  151 1   
   153  152  153 1   
   154  152  161 1   
   155  153  154 1   
   156  153  156 1   
   157  153  162 1   
   158  154  155 2   
   159  154  167 1   
   160  156  157 1   
   161  156  163 1   
   162  156  164 1   
   163  157  158 1   
   164  157  165 1   
   165  157  166 1   
   166  158  159 1   
   167  158  160 1   
   168  167  168 1   
   169  167  172 1   
   170  168  169 1   
   171  168  170 1   
   172  168  171 1   
   173  174  175 1   
   174  174  176 1   
   175  177  178 1   
   176  177  179 1   
   177  180  181 1   
   178  180  182 1   
@<TRIPOS>SUBSTRUCTURE
     1 MOL         1 TEMP              0 ****  ****    0 ROOT
