@<TRIPOS>MOLECULE
MOL
  189   185     1     0     0
SMALL
resp


@<TRIPOS>ATOM
      1 C1         -0.3940    3.4450   -5.0600 c3        1 MOL     -0.290838
      2 C2          0.1910    3.0660   -3.6540 c         1 MOL      0.810496
      3 O1         -0.2670    3.4420   -2.6010 o         1 MOL     -0.720052
      4 H1         -1.4640    3.6300   -4.9700 hc        1 MOL      0.071766
      5 H2          0.1010    4.3440   -5.4290 hc        1 MOL      0.071766
      6 H3         -0.2250    2.6250   -5.7580 hc        1 MOL      0.071766
      7 N1          1.3330    2.3880   -3.6500 n         1 MOL     -0.737337
      8 C3          2.0090    2.0880   -2.3960 c3        1 MOL      0.525405
      9 C4          2.5650    3.3340   -1.7240 c         1 MOL      0.240916
     10 O2          3.5550    3.9500   -2.1340 o         1 MOL     -0.535766
     11 C5          3.1330    1.0080   -2.6740 c3        1 MOL     -0.357450
     12 C6          3.8880    0.4910   -1.4400 c         1 MOL      0.814186
     13 O3          3.3430    0.6270   -0.3260 o         1 MOL     -0.689079
     14 O4          5.0770    0.0730   -1.5630 o         1 MOL     -0.689079
     15 H4          1.6810    2.1010   -4.5480 hn        1 MOL      0.351204
     16 H5          1.3420    1.7320   -1.6100 h1        1 MOL     -0.100365
     17 H6          3.7600    1.4020   -3.4720 hc        1 MOL      0.065354
     18 H7          2.6470    0.1340   -3.0960 hc        1 MOL      0.065354
     19 N2          1.9150    3.7090   -0.6040 n         1 MOL      0.007777
     20 C7          2.1500    4.9750    0.1970 c3        1 MOL     -0.060409
     21 C8          3.0720    4.7670    1.3900 c         1 MOL      0.358864
     22 O5          3.8210    5.7310    1.6230 o         1 MOL     -0.558596
     23 C9          0.8340    5.6080    0.6950 c3        1 MOL     -0.124860
     24 C10        -0.0720    6.0640   -0.4660 c3        1 MOL      0.037053
     25 C11         0.0830    7.5480   -0.6970 c3        1 MOL     -0.225596
     26 C12        -0.7280    8.2280   -1.8260 c3        1 MOL     -0.081998
     27 N3         -0.0220    8.1480   -3.1610 n4        1 MOL     -0.222858
     28 H8          1.0340    3.2290   -0.4610 hn        1 MOL      0.234363
     29 H9          2.6650    5.7060   -0.4260 h1        1 MOL      0.062168
     30 H10         0.9870    6.3970    1.4230 hc        1 MOL      0.060450
     31 H11         0.3760    4.8380    1.3050 hc        1 MOL      0.060450
     32 H12        -1.0610    5.7840   -0.0950 hc        1 MOL      0.055960
     33 H13         0.1820    5.5540   -1.3970 hc        1 MOL      0.055960
     34 H14         1.1350    7.7240   -0.9110 hc        1 MOL      0.107493
     35 H15        -0.0800    8.1280    0.2200 hc        1 MOL      0.107493
     36 H16        -0.8880    9.2610   -1.5440 hx        1 MOL      0.119365
     37 H17        -1.6800    7.6980   -1.9720 hx        1 MOL      0.119365
     38 H18         0.7690    8.7680   -3.1920 hn        1 MOL      0.294623
     39 H19         0.4220    7.2420   -3.2200 hn        1 MOL      0.294623
     40 H20        -0.5270    8.3810   -4.0000 hn        1 MOL      0.294623
     41 N4          3.0040    3.6370    2.0580 n         1 MOL     -0.106795
     42 C13         3.9200    3.4110    3.2120 c3        1 MOL      0.002954
     43 C14         5.1760    2.6220    2.8510 c         1 MOL      0.521287
     44 O6          6.0850    2.4200    3.6110 o         1 MOL     -0.521652
     45 C15         3.1010    2.8070    4.3470 c3        1 MOL     -0.074918
     46 C16         2.2910    1.5170    4.0850 c         1 MOL      0.669781
     47 O7          2.3590    0.9800    2.9570 o         1 MOL     -0.660396
     48 O8          1.9000    0.9270    5.1060 o         1 MOL     -0.660396
     49 H21         2.3220    2.9620    1.7520 hn        1 MOL      0.102104
     50 H22         4.3360    4.3860    3.4560 h1        1 MOL      0.069454
     51 H23         2.3600    3.5700    4.6080 hc        1 MOL      0.002316
     52 H24         3.8180    2.6910    5.1560 hc        1 MOL      0.002316
     53 N5          5.3710    2.2220    1.5710 n         1 MOL     -0.336959
     54 C17         6.6840    1.7920    0.9960 c3        1 MOL     -0.141070
     55 C18         7.2190    0.4380    1.5410 c         1 MOL      0.465350
     56 O9          8.3800    0.2780    1.8290 o         1 MOL     -0.528901
     57 H25         4.5750    2.2740    0.9600 hn        1 MOL      0.245788
     58 H26         7.4220    2.5460    1.2650 h1        1 MOL      0.095803
     59 H27         6.6320    1.8130   -0.0910 h1        1 MOL      0.095803
     60 N6          6.2150   -0.4720    1.6650 n         1 MOL     -0.119896
     61 C19         6.5430   -1.8660    1.8730 c3        1 MOL      0.023816
     62 C20         6.9060   -2.6250    0.5860 c         1 MOL      0.377018
     63 O10         7.3430   -3.7290    0.5890 o         1 MOL     -0.486873
     64 C21         5.4780   -2.6670    2.6380 c3        1 MOL     -0.365847
     65 C22         4.1140   -2.3080    2.2950 c         1 MOL      0.803609
     66 O11         3.7600   -2.0950    1.1220 o         1 MOL     -0.670521
     67 O12         3.2110   -2.3020    3.1500 o         1 MOL     -0.670521
     68 H28         5.2580   -0.2120    1.5140 hn        1 MOL      0.078260
     69 H29         7.4580   -1.8820    2.4670 h1        1 MOL      0.093492
     70 H30         5.6550   -2.3840    3.6770 hc        1 MOL      0.115122
     71 H31         5.7170   -3.6950    2.3750 hc        1 MOL      0.115122
     72 N7          6.6570   -2.0330   -0.6280 n         1 MOL     -0.274946
     73 C23         6.6980   -2.8410   -1.9250 c3        1 MOL     -0.173035
     74 C24         5.4720   -3.7360   -2.0510 c         1 MOL      0.591487
     75 O13         5.4800   -4.7270   -2.7560 o         1 MOL     -0.607810
     76 H32         6.3480   -1.0820   -0.7740 hn        1 MOL      0.251511
     77 H33         7.6000   -3.4570   -1.8920 h1        1 MOL      0.096711
     78 H34         6.6850   -2.0370   -2.6580 h1        1 MOL      0.096711
     79 N8          4.4150   -3.4700   -1.3500 n         1 MOL     -0.190496
     80 C25         3.1300   -4.2060   -1.4090 c3        1 MOL     -0.220974
     81 C26         1.9860   -3.1930   -1.5370 c         1 MOL      0.611573
     82 O14         2.0020   -2.1200   -0.9210 o         1 MOL     -0.621335
     83 C27         3.0710   -5.2660   -0.3500 c3        1 MOL      0.671899
     84 C28         3.6460   -6.5950   -0.8210 c3        1 MOL     -0.519612
     85 O15         3.7450   -5.0400    0.8490 oh        1 MOL     -0.634871
     86 H35         4.2680   -2.5920   -0.8720 hn        1 MOL      0.165860
     87 H36         3.0240   -4.7130   -2.3610 h1        1 MOL      0.083210
     88 H37         2.0170   -5.4000   -0.1000 h1        1 MOL     -0.087865
     89 H38         4.0510   -4.1290    0.7910 ho        1 MOL      0.379614
     90 H39         2.8850   -6.8600   -1.5570 hc        1 MOL      0.115534
     91 H40         4.5910   -6.5250   -1.3480 hc        1 MOL      0.115534
     92 H41         3.7770   -7.2990   -0.0020 hc        1 MOL      0.115534
     93 N9          0.9040   -3.5980   -2.2180 n         1 MOL     -0.546403
     94 C29        -0.2890   -2.7970   -2.4610 c3        1 MOL      0.049178
     95 C30        -1.3730   -3.4780   -1.6150 c         1 MOL      0.382834
     96 O16        -1.7180   -4.6440   -1.9050 o         1 MOL     -0.537935
     97 C31        -0.7230   -2.6770   -3.9250 c3        1 MOL      0.180239
     98 C32         0.4380   -2.1920   -4.7850 c3        1 MOL      0.008403
     99 C33        -1.9400   -1.6360   -3.8280 c3        1 MOL     -0.440637
    100 C34        -0.0050   -2.0900   -6.2710 c3        1 MOL     -0.015147
    101 H42         0.9860   -4.4760   -2.7100 hn        1 MOL      0.309075
    102 H43        -0.1020   -1.7850   -2.1000 h1        1 MOL      0.087689
    103 H44        -1.0700   -3.5820   -4.4070 hc        1 MOL      0.008540
    104 H45         1.2760   -2.8870   -4.7850 hc        1 MOL      0.005743
    105 H46         0.7850   -1.1830   -4.5320 hc        1 MOL      0.005743
    106 H47        -2.2390   -1.1770   -4.7690 hc        1 MOL      0.093308
    107 H48        -2.7770   -2.0560   -3.2710 hc        1 MOL      0.093308
    108 H49        -1.6630   -0.7920   -3.2050 hc        1 MOL      0.093308
    109 H50         0.8060   -1.6490   -6.8420 hc        1 MOL      0.001366
    110 H51        -0.1770   -3.0530   -6.7590 hc        1 MOL      0.001366
    111 H52        -0.8270   -1.4120   -6.4780 hc        1 MOL      0.001366
    112 N10        -1.9960   -2.6560   -0.7300 n         1 MOL     -0.085508
    113 C35        -3.1520   -3.0240    0.1150 c3        1 MOL     -0.010160
    114 C36        -4.3890   -2.3510   -0.5180 c         1 MOL      0.353409
    115 O17        -4.3290   -1.2570   -1.0730 o         1 MOL     -0.392250
    116 C37        -3.0000   -2.7030    1.5880 c3        1 MOL      0.317991
    117 C38        -4.1210   -3.0530    2.4740 c3        1 MOL     -0.594903
    118 O18        -1.8250   -3.3600    2.0800 oh        1 MOL     -0.599367
    119 H53        -1.6350   -1.7080   -0.6550 hn        1 MOL      0.250123
    120 H54        -3.3180   -4.1010   -0.0210 h1        1 MOL      0.047868
    121 H55        -2.7870   -1.6440    1.5450 h1        1 MOL      0.047683
    122 H56        -1.8440   -3.2980    3.0370 ho        1 MOL      0.424705
    123 H57        -4.9420   -2.3580    2.3220 hc        1 MOL      0.155329
    124 H58        -4.5090   -4.0210    2.1600 hc        1 MOL      0.155329
    125 H59        -3.7940   -3.1050    3.5130 hc        1 MOL      0.155329
    126 N11        -5.5450   -2.9630   -0.3770 n         1 MOL     -0.244623
    127 C39        -6.8920   -2.5410   -0.7450 c3        1 MOL     -0.095041
    128 C40        -7.1030   -1.0540   -0.4850 c         1 MOL      0.366926
    129 O19        -7.5670   -0.3670   -1.4150 o         1 MOL     -0.489706
    130 C41        -8.0370   -3.2930   -0.0220 c3        1 MOL      0.212081
    131 C42        -8.1040   -4.7140   -0.5790 c3        1 MOL     -0.515620
    132 O20        -7.5970   -3.3760    1.3060 oh        1 MOL     -0.636898
    133 H60        -5.5790   -3.8730    0.0740 hn        1 MOL      0.244682
    134 H61        -7.0190   -2.7160   -1.8090 h1        1 MOL      0.131263
    135 H62        -8.9790   -2.7640   -0.1350 h1        1 MOL      0.097061
    136 H63        -8.0670   -4.1260    1.6890 ho        1 MOL      0.418623
    137 H64        -7.3610   -5.4100   -0.2040 hc        1 MOL      0.155373
    138 H65        -9.0760   -5.1010   -0.2700 hc        1 MOL      0.155373
    139 H66        -8.0930   -4.7860   -1.6710 hc        1 MOL      0.155373
    140 N12        -6.7010   -0.5280    0.6440 n         1 MOL     -0.183145
    141 C43        -6.9320    0.8680    1.0110 c3        1 MOL     -0.017351
    142 C44        -6.1790    1.7960    0.0890 c         1 MOL      0.420498
    143 O21        -6.8010    2.7910   -0.2690 o         1 MOL     -0.527369
    144 C45        -6.4160    1.0340    2.4800 c3        1 MOL     -0.024770
    145 C46        -7.4970    0.6140    3.5110 c3        1 MOL     -0.085794
    146 C47        -6.9710    0.6530    5.0070 c3        1 MOL     -0.158717
    147 C48        -7.9230    0.3400    6.1820 c3        1 MOL      0.021060
    148 N13        -7.2380    0.0510    7.4690 n4        1 MOL     -0.254189
    149 H67        -6.2710   -1.1260    1.3400 hn        1 MOL      0.218463
    150 H68        -8.0000    1.0770    0.9700 h1        1 MOL      0.097321
    151 H69        -6.1650    2.0720    2.7100 hc        1 MOL      0.036617
    152 H70        -5.5330    0.4300    2.6830 hc        1 MOL      0.036617
    153 H71        -7.9080   -0.3820    3.3480 hc        1 MOL      0.057119
    154 H72        -8.2960    1.3510    3.4150 hc        1 MOL      0.057119
    155 H73        -6.5670    1.6620    5.1020 hc        1 MOL      0.075393
    156 H74        -6.0800    0.0550    5.2050 hc        1 MOL      0.075393
    157 H75        -8.5540   -0.4910    5.8790 hx        1 MOL      0.091722
    158 H76        -8.6540    1.1450    6.3440 hx        1 MOL      0.091722
    159 H77        -6.8120    0.8560    7.9080 hn        1 MOL      0.259414
    160 H78        -7.8890   -0.2170    8.1880 hn        1 MOL      0.259414
    161 H79        -6.4260   -0.5320    7.3110 hn        1 MOL      0.259414
    162 N14        -4.9670    1.4580   -0.2860 n         1 MOL     -0.237968
    163 C49        -4.0490    2.2140   -1.2070 c3        1 MOL     -0.234061
    164 C50        -4.6880    2.2450   -2.6400 c         1 MOL      0.503913
    165 O22        -4.1760    3.0030   -3.4330 o         1 MOL     -0.547875
    166 C51        -2.6850    1.6130   -1.1990 c3        1 MOL      0.374262
    167 C52        -2.0380    1.6650    0.1710 c3        1 MOL     -0.136765
    168 C53        -0.6360    1.0320    0.1180 c         1 MOL      0.883649
    169 O23         0.3330    1.5680    0.7230 o         1 MOL     -0.813428
    170 O24        -0.5110   -0.1720   -0.1900 o         1 MOL     -0.813428
    171 H80        -4.5840    0.5730    0.0230 hn        1 MOL      0.198854
    172 H81        -3.9370    3.2460   -0.9000 h1        1 MOL      0.137404
    173 H82        -2.0620    2.0910   -1.9490 hc        1 MOL     -0.072723
    174 H83        -2.8090    0.5640   -1.4490 hc        1 MOL     -0.072723
    175 H84        -2.6620    1.0300    0.7970 hc        1 MOL     -0.048918
    176 H85        -1.9600    2.6950    0.5150 hc        1 MOL     -0.048918
    177 N15        -5.7070    1.4020   -2.9860 n         1 MOL     -0.146274
    178 C54        -6.5350    1.5490   -4.1860 c3        1 MOL     -0.258298
    179 H86        -6.3960    2.5460   -4.6030 h1        1 MOL      0.107723
    180 H87        -6.2400    0.8030   -4.9250 h1        1 MOL      0.107723
    181 H88        -7.5840    1.4070   -3.9250 h1        1 MOL      0.107723
    182 H89        -5.8550    0.5920   -2.4000 hn        1 MOL      0.181655
    183 Ca1         1.6300   -0.7200    1.1930 Ca        1 MOL      1.714260
    184 O25         0.7220   -3.1620    1.6920 oh        1 MOL     -0.859889
    185 H90         0.9710   -3.9780    2.1300 ho        1 MOL      0.400701
    186 H91        -0.2290   -3.2060    1.6190 ho        1 MOL      0.400701
    187 O26        -0.5170   -0.2570    2.9470 oh        1 MOL     -0.859889
    188 H92        -1.4600   -0.0850    2.9690 ho        1 MOL      0.400701
    189 H93        -0.1230    0.5640    3.2730 ho        1 MOL      0.400701
@<TRIPOS>BOND
     1    1    2 1   
     2    1    4 1   
     3    1    5 1   
     4    1    6 1   
     5    2    3 2   
     6    2    7 1   
     7    7    8 1   
     8    7   15 1   
     9    8    9 1   
    10    8   11 1   
    11    8   16 1   
    12    9   10 2   
    13    9   19 1   
    14   11   12 1   
    15   11   17 1   
    16   11   18 1   
    17   12   13 1   
    18   12   14 1   
    19   19   20 1   
    20   19   28 1   
    21   20   21 1   
    22   20   23 1   
    23   20   29 1   
    24   21   22 2   
    25   21   41 1   
    26   23   24 1   
    27   23   30 1   
    28   23   31 1   
    29   24   25 1   
    30   24   32 1   
    31   24   33 1   
    32   25   26 1   
    33   25   34 1   
    34   25   35 1   
    35   26   27 1   
    36   26   36 1   
    37   26   37 1   
    38   27   38 1   
    39   27   39 1   
    40   27   40 1   
    41   41   42 1   
    42   41   49 1   
    43   42   43 1   
    44   42   45 1   
    45   42   50 1   
    46   43   44 2   
    47   43   53 1   
    48   45   46 1   
    49   45   51 1   
    50   45   52 1   
    51   46   47 1   
    52   46   48 1   
    53   53   54 1   
    54   53   57 1   
    55   54   55 1   
    56   54   58 1   
    57   54   59 1   
    58   55   56 2   
    59   55   60 1   
    60   60   61 1   
    61   60   68 1   
    62   61   62 1   
    63   61   64 1   
    64   61   69 1   
    65   62   63 2   
    66   62   72 1   
    67   64   65 1   
    68   64   70 1   
    69   64   71 1   
    70   65   66 1   
    71   65   67 1   
    72   72   73 1   
    73   72   76 1   
    74   73   74 1   
    75   73   77 1   
    76   73   78 1   
    77   74   75 2   
    78   74   79 1   
    79   79   80 1   
    80   79   86 1   
    81   80   81 1   
    82   80   83 1   
    83   80   87 1   
    84   81   82 2   
    85   81   93 1   
    86   83   84 1   
    87   83   85 1   
    88   83   88 1   
    89   84   90 1   
    90   84   91 1   
    91   84   92 1   
    92   85   89 1   
    93   93   94 1   
    94   93  101 1   
    95   94   95 1   
    96   94   97 1   
    97   94  102 1   
    98   95   96 2   
    99   95  112 1   
   100   97   98 1   
   101   97   99 1   
   102   97  103 1   
   103   98  100 1   
   104   98  104 1   
   105   98  105 1   
   106   99  106 1   
   107   99  107 1   
   108   99  108 1   
   109  100  109 1   
   110  100  110 1   
   111  100  111 1   
   112  112  113 1   
   113  112  119 1   
   114  113  114 1   
   115  113  116 1   
   116  113  120 1   
   117  114  115 2   
   118  114  126 1   
   119  116  117 1   
   120  116  118 1   
   121  116  121 1   
   122  117  123 1   
   123  117  124 1   
   124  117  125 1   
   125  118  122 1   
   126  126  127 1   
   127  126  133 1   
   128  127  128 1   
   129  127  130 1   
   130  127  134 1   
   131  128  129 2   
   132  128  140 1   
   133  130  131 1   
   134  130  132 1   
   135  130  135 1   
   136  131  137 1   
   137  131  138 1   
   138  131  139 1   
   139  132  136 1   
   140  140  141 1   
   141  140  149 1   
   142  141  142 1   
   143  141  144 1   
   144  141  150 1   
   145  142  143 2   
   146  142  162 1   
   147  144  145 1   
   148  144  151 1   
   149  144  152 1   
   150  145  146 1   
   151  145  153 1   
   152  145  154 1   
   153  146  147 1   
   154  146  155 1   
   155  146  156 1   
   156  147  148 1   
   157  147  157 1   
   158  147  158 1   
   159  148  159 1   
   160  148  160 1   
   161  148  161 1   
   162  162  163 1   
   163  162  171 1   
   164  163  164 1   
   165  163  166 1   
   166  163  172 1   
   167  164  165 2   
   168  164  177 1   
   169  166  167 1   
   170  166  173 1   
   171  166  174 1   
   172  167  168 1   
   173  167  175 1   
   174  167  176 1   
   175  168  169 1   
   176  168  170 1   
   177  177  178 1   
   178  177  182 1   
   179  178  179 1   
   180  178  180 1   
   181  178  181 1   
   182  184  185 1   
   183  184  186 1   
   184  187  188 1   
   185  187  189 1   
@<TRIPOS>SUBSTRUCTURE
     1 MOL         1 TEMP              0 ****  ****    0 ROOT
