@<TRIPOS>MOLECULE
MOL
  189   185     1     0     0
SMALL
resp


@<TRIPOS>ATOM
      1 C1          0.8010    2.3600    5.0720 c3        1 MOL     -0.421267
      2 C2         -0.0800    2.2380    3.8190 c         1 MOL      0.718924
      3 O1          0.3780    2.6410    2.7670 o         1 MOL     -0.584701
      4 H1          1.4830    3.2020    4.9560 hc        1 MOL      0.105641
      5 H2          0.1700    2.5230    5.9460 hc        1 MOL      0.105641
      6 H3          1.3750    1.4430    5.2040 hc        1 MOL      0.105641
      7 N1         -1.3400    1.7250    3.8040 n         1 MOL     -0.677925
      8 C3         -2.1190    1.4730    2.5480 c3        1 MOL      0.252040
      9 C4         -2.7740    2.7670    1.9980 c         1 MOL      0.345143
     10 O2         -3.9590    2.9430    2.2090 o         1 MOL     -0.466546
     11 C5         -3.2060    0.3850    2.7540 c3        1 MOL     -0.154674
     12 C6         -3.7480   -0.1370    1.4040 c         1 MOL      0.738047
     13 O3         -4.7180   -0.8950    1.4170 o         1 MOL     -0.685877
     14 O4         -3.3990    0.3500    0.3270 o         1 MOL     -0.685877
     15 H4         -1.6200    1.2210    4.6330 hn        1 MOL      0.321955
     16 H5         -1.4010    1.1360    1.8090 h1        1 MOL      0.039477
     17 H6         -4.0120    0.7330    3.4100 hc        1 MOL      0.041048
     18 H7         -2.7250   -0.4760    3.2260 hc        1 MOL      0.041048
     19 N2         -1.9600    3.5780    1.3270 n         1 MOL     -0.113622
     20 C7         -2.3310    4.9630    0.9930 c3        1 MOL     -0.223390
     21 C8         -3.5250    4.9690   -0.0330 c         1 MOL      0.434892
     22 O5         -4.1720    5.9680   -0.2550 o         1 MOL     -0.552512
     23 C9         -1.1720    5.8020    0.4160 c3        1 MOL      0.080081
     24 C10         0.0390    6.0300    1.3430 c3        1 MOL      0.078561
     25 C11        -0.3990    6.5260    2.7140 c3        1 MOL     -0.013274
     26 C12         0.6880    7.4170    3.4280 c3        1 MOL     -0.093429
     27 N3          1.7770    6.6140    4.1680 n4        1 MOL     -0.332117
     28 H8         -1.0390    3.2520    1.0980 hn        1 MOL      0.247748
     29 H9         -2.7660    5.4520    1.8630 h1        1 MOL      0.118801
     30 H10        -1.4640    6.8130    0.1140 hc        1 MOL      0.018077
     31 H11        -0.8260    5.4890   -0.5660 hc        1 MOL      0.018077
     32 H12         0.6400    6.8080    0.8620 hc        1 MOL     -0.018329
     33 H13         0.6200    5.1040    1.3520 hc        1 MOL     -0.018329
     34 H14        -0.7020    5.6550    3.2960 hc        1 MOL      0.037892
     35 H15        -1.2770    7.1600    2.6130 hc        1 MOL      0.037892
     36 H16         0.2170    7.9940    4.2340 hx        1 MOL      0.120785
     37 H17         1.1230    8.1350    2.7410 hx        1 MOL      0.120785
     38 H18         2.1480    5.8030    3.7030 hn        1 MOL      0.319625
     39 H19         2.5800    7.1790    4.4100 hn        1 MOL      0.319625
     40 H20         1.4090    6.2860    5.0490 hn        1 MOL      0.319625
     41 N4         -3.6720    3.8720   -0.8350 n         1 MOL     -0.066005
     42 C13        -4.6520    3.7910   -1.9030 c3        1 MOL     -0.028142
     43 C14        -5.8440    2.8710   -1.4850 c         1 MOL      0.368059
     44 O6         -6.8850    2.8020   -2.1730 o         1 MOL     -0.533119
     45 C15        -3.9810    3.3950   -3.2160 c3        1 MOL     -0.290345
     46 C16        -2.7730    2.4900   -3.2280 c         1 MOL      0.791261
     47 O7         -2.8030    1.5380   -2.3930 o         1 MOL     -0.722280
     48 O8         -1.8600    2.7070   -4.0360 o         1 MOL     -0.722280
     49 H21        -2.9970    3.1330   -0.7060 hn        1 MOL      0.072932
     50 H22        -4.9890    4.8080   -2.1090 h1        1 MOL      0.130035
     51 H23        -3.6980    4.3380   -3.6900 hc        1 MOL      0.074636
     52 H24        -4.7440    2.8600   -3.7750 hc        1 MOL      0.074636
     53 N5         -5.8730    2.3760   -0.2720 n         1 MOL     -0.006871
     54 C17        -7.0460    1.8190    0.4230 c3        1 MOL     -0.469811
     55 C18        -7.4740    0.4890   -0.1340 c         1 MOL      0.613939
     56 O9         -8.6460    0.0300   -0.0380 o         1 MOL     -0.595811
     57 H25        -4.9690    2.3340    0.1780 hn        1 MOL      0.033311
     58 H26        -7.8410    2.5200    0.2010 h1        1 MOL      0.201655
     59 H27        -6.7530    1.7570    1.4650 h1        1 MOL      0.201655
     60 N6         -6.6150   -0.2910   -0.8820 n         1 MOL     -0.243686
     61 C19        -6.9120   -1.4260   -1.7920 c3        1 MOL     -0.028662
     62 C20        -6.9630   -2.8010   -1.0370 c         1 MOL      0.408483
     63 O10        -7.5060   -3.8210   -1.4160 o         1 MOL     -0.545366
     64 C21        -5.8720   -1.3870   -3.0140 c3        1 MOL     -0.309648
     65 C22        -4.3630   -1.5820   -2.5900 c         1 MOL      0.899839
     66 O11        -3.5330   -1.1290   -3.3890 o         1 MOL     -0.775030
     67 O12        -3.9220   -2.2430   -1.6380 o         1 MOL     -0.775030
     68 H28        -5.6810    0.0430   -0.7340 hn        1 MOL      0.195043
     69 H29        -7.8880   -1.2630   -2.2550 h1        1 MOL      0.127870
     70 H30        -5.9860   -0.5030   -3.6440 hc        1 MOL      0.097205
     71 H31        -6.2530   -2.2200   -3.6090 hc        1 MOL      0.097205
     72 N7         -6.3640   -2.8800    0.1790 n         1 MOL     -0.131288
     73 C23        -6.3850   -4.0010    1.1150 c3        1 MOL     -0.146644
     74 C24        -5.0310   -4.5130    1.4530 c         1 MOL      0.547406
     75 O13        -4.9680   -5.6020    2.0170 o         1 MOL     -0.591284
     76 H32        -5.8690   -2.0350    0.4050 hn        1 MOL      0.156376
     77 H33        -7.0580   -4.7460    0.6730 h1        1 MOL      0.091784
     78 H34        -6.7700   -3.6370    2.0670 h1        1 MOL      0.091784
     79 N8         -3.9670   -3.9710    0.8930 n         1 MOL     -0.187321
     80 C25        -2.6020   -4.5780    0.7820 c3        1 MOL     -0.423476
     81 C26        -1.4310   -3.6120    0.9680 c         1 MOL      0.945035
     82 O14        -1.5810   -2.4750    0.5710 o         1 MOL     -0.747113
     83 C27        -2.3830   -5.3050   -0.6000 c3        1 MOL      0.496459
     84 C28        -3.1330   -6.6370   -0.5410 c3        1 MOL     -0.504172
     85 O15        -2.7580   -4.6140   -1.7220 oh        1 MOL     -0.574581
     86 H35        -4.1120   -3.0140    0.5850 hn        1 MOL      0.206152
     87 H36        -2.4950   -5.2810    1.6090 h1        1 MOL      0.127202
     88 H37        -1.3070   -5.4660   -0.6310 h1        1 MOL     -0.034901
     89 H38        -3.3330   -3.8770   -1.5110 ho        1 MOL      0.389244
     90 H39        -2.8030   -7.1660    0.3410 hc        1 MOL      0.131310
     91 H40        -4.1930   -6.4450   -0.3810 hc        1 MOL      0.131310
     92 H41        -3.0460   -7.2600   -1.4390 hc        1 MOL      0.131310
     93 N9         -0.3250   -4.0400    1.6390 n         1 MOL     -0.727055
     94 C29         0.8310   -3.2380    1.8720 c3        1 MOL      0.006540
     95 C30         2.0380   -3.8060    1.1420 c         1 MOL      0.558918
     96 O16         2.5880   -4.8560    1.4550 o         1 MOL     -0.539507
     97 C31         1.0610   -3.1000    3.4010 c3        1 MOL      0.041035
     98 C32        -0.0890   -2.4110    4.1970 c3        1 MOL      0.193674
     99 C33         2.4540   -2.3340    3.6430 c3        1 MOL     -0.225650
    100 C34         0.0570   -2.8760    5.6320 c3        1 MOL     -0.135549
    101 H42        -0.4130   -4.9070    2.1410 hn        1 MOL      0.362199
    102 H43         0.7560   -2.2120    1.5110 h1        1 MOL      0.131861
    103 H44         1.1580   -4.0880    3.8520 hc        1 MOL      0.042681
    104 H45        -1.0420   -2.8310    3.8920 hc        1 MOL     -0.032572
    105 H46        -0.0770   -1.3280    4.0500 hc        1 MOL     -0.032572
    106 H47         3.3010   -2.9030    3.2590 hc        1 MOL      0.041336
    107 H48         2.4990   -1.3560    3.1700 hc        1 MOL      0.041336
    108 H49         2.6350   -2.0620    4.6840 hc        1 MOL      0.041336
    109 H50        -0.7450   -2.4670    6.2460 hc        1 MOL      0.021585
    110 H51        -0.0480   -3.9660    5.6020 hc        1 MOL      0.021585
    111 H52         0.9570   -2.5620    6.1600 hc        1 MOL      0.021585
    112 N10         2.4240   -2.9470    0.1720 n         1 MOL     -0.330766
    113 C35         3.5910   -3.1360   -0.7470 c3        1 MOL     -0.005238
    114 C36         4.9310   -2.6700   -0.0340 c         1 MOL      0.155699
    115 O17         4.9250   -2.0290    0.9700 o         1 MOL     -0.257680
    116 C37         3.4900   -2.4550   -2.1570 c3        1 MOL      0.334352
    117 C38         2.3060   -2.9280   -3.0220 c3        1 MOL     -0.424168
    118 O18         3.3450   -1.0590   -1.9890 oh        1 MOL     -0.555181
    119 H53         1.9090   -2.0940    0.0510 hn        1 MOL      0.237660
    120 H54         3.7440   -4.2040   -0.8390 h1        1 MOL      0.072146
    121 H55         4.4340   -2.6520   -2.6710 h1        1 MOL     -0.002182
    122 H56         2.6240   -0.9110   -1.3790 ho        1 MOL      0.349152
    123 H57         2.5180   -3.9400   -3.3640 hc        1 MOL      0.113393
    124 H58         1.3670   -3.1030   -2.4970 hc        1 MOL      0.113393
    125 H59         2.1890   -2.1570   -3.7800 hc        1 MOL      0.113393
    126 N11         6.0860   -3.0470   -0.5420 n         1 MOL     -0.001014
    127 C39         7.4040   -2.5120   -0.1480 c3        1 MOL     -0.442493
    128 C40         7.6270   -0.9760   -0.3980 c         1 MOL      0.394389
    129 O19         8.3730   -0.3840    0.3400 o         1 MOL     -0.457492
    130 C41         8.6020   -3.1320   -0.9990 c3        1 MOL      0.476039
    131 C42         8.7720   -4.5590   -0.5670 c3        1 MOL     -0.438415
    132 O20         8.2870   -3.1900   -2.3360 oh        1 MOL     -0.699816
    133 H60         6.0870   -3.8130   -1.1960 hn        1 MOL      0.176243
    134 H61         7.6380   -2.6690    0.9030 h1        1 MOL      0.180985
    135 H62         9.5630   -2.6440   -0.8260 h1        1 MOL      0.045506
    136 H63         8.5110   -4.0540   -2.6760 ho        1 MOL      0.436084
    137 H64         7.8440   -5.1410   -0.5950 hc        1 MOL      0.111865
    138 H65         9.5350   -4.9590   -1.2250 hc        1 MOL      0.111865
    139 H66         9.0830   -4.5590    0.4770 hc        1 MOL      0.111865
    140 N12         6.9730   -0.4930   -1.4450 n         1 MOL     -0.125402
    141 C43         6.9660    0.9070   -1.6940 c3        1 MOL     -0.148506
    142 C44         6.2900    1.6410   -0.5400 c         1 MOL      0.186416
    143 O21         6.8200    2.5330    0.1770 o         1 MOL     -0.474804
    144 C45         6.3230    1.3070   -3.0570 c3        1 MOL      0.061662
    145 C46         6.2720    2.8120   -3.2070 c3        1 MOL      0.117748
    146 C47         5.5990    3.1890   -4.5870 c3        1 MOL     -0.055787
    147 C48         4.8030    4.5560   -4.5970 c3        1 MOL      0.083847
    148 N13         4.1160    4.8220   -5.8920 n4        1 MOL     -0.422426
    149 H67         6.5440   -1.1470   -2.0840 hn        1 MOL      0.210790
    150 H68         7.9940    1.2850   -1.7200 h1        1 MOL      0.125996
    151 H69         5.3190    0.8920   -3.1240 hc        1 MOL     -0.001628
    152 H70         6.9250    1.0130   -3.9180 hc        1 MOL     -0.001628
    153 H71         7.2500    3.2810   -3.1260 hc        1 MOL     -0.015874
    154 H72         5.5820    3.2060   -2.4570 hc        1 MOL     -0.015874
    155 H73         4.9000    2.3840   -4.8260 hc        1 MOL      0.027369
    156 H74         6.3250    3.2220   -5.3960 hc        1 MOL      0.027369
    157 H75         5.5000    5.3760   -4.4370 hx        1 MOL      0.073738
    158 H76         4.0200    4.5440   -3.8240 hx        1 MOL      0.073738
    159 H77         3.4370    5.5680   -5.8470 hn        1 MOL      0.346199
    160 H78         4.8670    5.0530   -6.5380 hn        1 MOL      0.346199
    161 H79         3.6150    4.0020   -6.1970 hn        1 MOL      0.346199
    162 N14         5.1290    1.1780   -0.1670 n         1 MOL      0.254080
    163 C49         4.4180    1.5850    1.0400 c3        1 MOL     -0.200751
    164 C50         5.2230    1.4140    2.3760 c         1 MOL      0.480509
    165 O22         5.5030    2.3820    3.0670 o         1 MOL     -0.561238
    166 C51         3.0540    0.8950    1.1600 c3        1 MOL     -0.035714
    167 C52         2.1830    1.4890   -0.0460 c3        1 MOL     -0.078736
    168 C53         0.9400    0.6290   -0.3300 c         1 MOL      0.827373
    169 O23         1.0710   -0.5870   -0.4860 o         1 MOL     -0.784947
    170 O24        -0.1970    1.1020   -0.2860 o         1 MOL     -0.784947
    171 H80         4.6620    0.5150   -0.7620 hn        1 MOL      0.033502
    172 H81         4.3220    2.6670    0.9900 h1        1 MOL      0.040511
    173 H82         2.6150    1.0890    2.1420 hc        1 MOL      0.056994
    174 H83         3.2290   -0.1690    1.0000 hc        1 MOL      0.056994
    175 H84         2.6810    1.6060   -1.0090 hc        1 MOL     -0.001509
    176 H85         1.8850    2.5130    0.2030 hc        1 MOL     -0.001509
    177 N15         5.5880    0.1700    2.7080 n         1 MOL     -0.085558
    178 C54         6.3940   -0.2000    3.9140 c3        1 MOL     -0.224160
    179 H86         7.0890    0.6060    4.1480 h1        1 MOL      0.094797
    180 H87         5.7280   -0.3620    4.7610 h1        1 MOL      0.094797
    181 H88         6.9530   -1.1140    3.7110 h1        1 MOL      0.094797
    182 H89         5.2130   -0.6110    2.1910 hn        1 MOL      0.103963
    183 Ca1        -1.7100   -0.5870   -1.4440 Ca        1 MOL      1.820509
    184 O25        -0.5140    0.3620   -3.4890 oh        1 MOL     -0.871460
    185 H90        -0.2510    0.0020   -4.3360 ho        1 MOL      0.400001
    186 H91        -1.0300    1.1340   -3.7030 ho        1 MOL      0.400001
    187 O26        -1.2020   -2.6430   -2.8630 oh        1 MOL     -0.871460
    188 H92        -0.9760   -2.3250   -3.7360 ho        1 MOL      0.400001
    189 H93        -1.7690   -3.4040   -3.0270 ho        1 MOL      0.400001
@<TRIPOS>BOND
     1    1    2 1   
     2    1    4 1   
     3    1    5 1   
     4    1    6 1   
     5    2    3 2   
     6    2    7 1   
     7    7    8 1   
     8    7   15 1   
     9    8    9 1   
    10    8   11 1   
    11    8   16 1   
    12    9   10 2   
    13    9   19 1   
    14   11   12 1   
    15   11   17 1   
    16   11   18 1   
    17   12   13 1   
    18   12   14 1   
    19   19   20 1   
    20   19   28 1   
    21   20   21 1   
    22   20   23 1   
    23   20   29 1   
    24   21   22 2   
    25   21   41 1   
    26   23   24 1   
    27   23   30 1   
    28   23   31 1   
    29   24   25 1   
    30   24   32 1   
    31   24   33 1   
    32   25   26 1   
    33   25   34 1   
    34   25   35 1   
    35   26   27 1   
    36   26   36 1   
    37   26   37 1   
    38   27   38 1   
    39   27   39 1   
    40   27   40 1   
    41   41   42 1   
    42   41   49 1   
    43   42   43 1   
    44   42   45 1   
    45   42   50 1   
    46   43   44 2   
    47   43   53 1   
    48   45   46 1   
    49   45   51 1   
    50   45   52 1   
    51   46   47 1   
    52   46   48 1   
    53   53   54 1   
    54   53   57 1   
    55   54   55 1   
    56   54   58 1   
    57   54   59 1   
    58   55   56 2   
    59   55   60 1   
    60   60   61 1   
    61   60   68 1   
    62   61   62 1   
    63   61   64 1   
    64   61   69 1   
    65   62   63 2   
    66   62   72 1   
    67   64   65 1   
    68   64   70 1   
    69   64   71 1   
    70   65   66 1   
    71   65   67 1   
    72   72   73 1   
    73   72   76 1   
    74   73   74 1   
    75   73   77 1   
    76   73   78 1   
    77   74   75 2   
    78   74   79 1   
    79   79   80 1   
    80   79   86 1   
    81   80   81 1   
    82   80   83 1   
    83   80   87 1   
    84   81   82 2   
    85   81   93 1   
    86   83   84 1   
    87   83   85 1   
    88   83   88 1   
    89   84   90 1   
    90   84   91 1   
    91   84   92 1   
    92   85   89 1   
    93   93   94 1   
    94   93  101 1   
    95   94   95 1   
    96   94   97 1   
    97   94  102 1   
    98   95   96 2   
    99   95  112 1   
   100   97   98 1   
   101   97   99 1   
   102   97  103 1   
   103   98  100 1   
   104   98  104 1   
   105   98  105 1   
   106   99  106 1   
   107   99  107 1   
   108   99  108 1   
   109  100  109 1   
   110  100  110 1   
   111  100  111 1   
   112  112  113 1   
   113  112  119 1   
   114  113  114 1   
   115  113  116 1   
   116  113  120 1   
   117  114  115 2   
   118  114  126 1   
   119  116  117 1   
   120  116  118 1   
   121  116  121 1   
   122  117  123 1   
   123  117  124 1   
   124  117  125 1   
   125  118  122 1   
   126  126  127 1   
   127  126  133 1   
   128  127  128 1   
   129  127  130 1   
   130  127  134 1   
   131  128  129 2   
   132  128  140 1   
   133  130  131 1   
   134  130  132 1   
   135  130  135 1   
   136  131  137 1   
   137  131  138 1   
   138  131  139 1   
   139  132  136 1   
   140  140  141 1   
   141  140  149 1   
   142  141  142 1   
   143  141  144 1   
   144  141  150 1   
   145  142  143 2   
   146  142  162 1   
   147  144  145 1   
   148  144  151 1   
   149  144  152 1   
   150  145  146 1   
   151  145  153 1   
   152  145  154 1   
   153  146  147 1   
   154  146  155 1   
   155  146  156 1   
   156  147  148 1   
   157  147  157 1   
   158  147  158 1   
   159  148  159 1   
   160  148  160 1   
   161  148  161 1   
   162  162  163 1   
   163  162  171 1   
   164  163  164 1   
   165  163  166 1   
   166  163  172 1   
   167  164  165 2   
   168  164  177 1   
   169  166  167 1   
   170  166  173 1   
   171  166  174 1   
   172  167  168 1   
   173  167  175 1   
   174  167  176 1   
   175  168  169 1   
   176  168  170 1   
   177  177  178 1   
   178  177  182 1   
   179  178  179 1   
   180  178  180 1   
   181  178  181 1   
   182  184  185 1   
   183  184  186 1   
   184  187  188 1   
   185  187  189 1   
@<TRIPOS>SUBSTRUCTURE
     1 MOL         1 TEMP              0 ****  ****    0 ROOT
