@<TRIPOS>MOLECULE
MOL
  183   181     1     0     0
SMALL
resp


@<TRIPOS>ATOM
      1 C1         -0.2740    2.2500    5.9370 c3        1 MOL     -0.299959
      2 C2         -0.8540    2.1550    4.4970 c         1 MOL      0.704752
      3 O1         -0.1690    2.6690    3.5490 o         1 MOL     -0.565876
      4 H1          0.5080    1.5010    6.0640 hc        1 MOL      0.071282
      5 H2          0.1460    3.2440    6.0960 hc        1 MOL      0.071282
      6 H3         -1.0680    2.0710    6.6620 hc        1 MOL      0.071282
      7 N1         -1.9830    1.4490    4.2240 n         1 MOL     -0.570334
      8 C3         -2.5400    1.3670    2.9050 c3        1 MOL      0.058216
      9 C4         -2.9820    2.7400    2.3380 c         1 MOL      0.520569
     10 O2         -3.7590    3.4880    2.9820 o         1 MOL     -0.583347
     11 C5         -3.8690    0.4900    2.9210 c3        1 MOL     -0.114435
     12 C6         -4.4960    0.1700    1.5840 c         1 MOL      0.813925
     13 O3         -5.6910   -0.2960    1.6300 o         1 MOL     -0.698951
     14 O4         -3.8900    0.5030    0.5210 o         1 MOL     -0.698951
     15 H4         -2.4360    0.9270    4.9650 hn        1 MOL      0.312947
     16 H5         -1.7900    0.8960    2.2780 h1        1 MOL      0.039626
     17 H6         -4.5950    0.9110    3.6150 hc        1 MOL      0.018026
     18 H7         -3.5700   -0.4830    3.2840 hc        1 MOL      0.018026
     19 N2         -2.4900    3.2440    1.1640 n         1 MOL     -0.256626
     20 C7         -2.6640    4.7010    0.7180 c3        1 MOL     -0.179112
     21 C8         -3.8280    4.7290   -0.3550 c         1 MOL      0.509817
     22 O5         -4.3880    5.7840   -0.5470 o         1 MOL     -0.556438
     23 C9         -1.3110    5.3620    0.1290 c3        1 MOL      0.254369
     24 C10        -0.2740    5.5470    1.2660 c3        1 MOL      0.160799
     25 C11        -1.5020    6.7210   -0.4860 c3        1 MOL     -0.246325
     26 C12         1.1540    5.7580    0.7770 c3        1 MOL     -0.215602
     27 H8         -1.8160    2.6830    0.6550 hn        1 MOL      0.190710
     28 H9         -2.9310    5.2830    1.6030 h1        1 MOL      0.105450
     29 H10        -0.8490    4.6490   -0.5550 hc        1 MOL      0.005813
     30 H11        -0.1690    4.6000    1.7950 hc        1 MOL     -0.046763
     31 H12        -0.6900    6.3060    1.9310 hc        1 MOL     -0.046763
     32 H13        -2.2840    7.2310    0.0680 hc        1 MOL      0.040545
     33 H14        -0.6140    7.3540   -0.5050 hc        1 MOL      0.040545
     34 H15        -1.9530    6.6000   -1.4760 hc        1 MOL      0.040545
     35 H16         1.7210    5.4550    1.6550 hc        1 MOL      0.032624
     36 H17         1.5450    5.1280   -0.0170 hc        1 MOL      0.032624
     37 H18         1.2750    6.8190    0.5810 hc        1 MOL      0.032624
     38 N3         -4.1340    3.5690   -0.9240 n         1 MOL     -0.210962
     39 C13        -5.2180    3.4500   -1.8440 c3        1 MOL     -0.059675
     40 C14        -6.5530    3.1220   -1.1030 c         1 MOL      0.428823
     41 O6         -7.6190    3.6400   -1.4380 o         1 MOL     -0.565712
     42 C15        -4.9300    2.4740   -2.9950 c3        1 MOL      0.108246
     43 C16        -3.4720    2.4440   -3.2670 c         1 MOL      0.630003
     44 O7         -2.8820    3.1960   -4.0820 o         1 MOL     -0.702424
     45 O8         -2.8910    1.4990   -2.7080 o         1 MOL     -0.702424
     46 H19        -3.5020    2.8410   -0.6460 hn        1 MOL      0.185788
     47 H20        -5.4220    4.4210   -2.2910 h1        1 MOL      0.065488
     48 H21        -5.3900    2.8050   -3.9250 hc        1 MOL     -0.038653
     49 H22        -5.3250    1.4700   -2.8060 hc        1 MOL     -0.038653
     50 N4         -6.5170    2.1550   -0.1850 n         1 MOL     -0.091707
     51 C17        -7.8110    1.7180    0.3410 c3        1 MOL     -0.124032
     52 C18        -8.3340    0.4140   -0.2590 c         1 MOL      0.626187
     53 O9         -9.5230    0.2440   -0.5580 o         1 MOL     -0.638422
     54 H23        -5.5970    1.8010    0.0550 hn        1 MOL      0.046208
     55 H24        -8.6220    2.4320    0.1870 h1        1 MOL      0.068579
     56 H25        -7.8190    1.6110    1.4220 h1        1 MOL      0.068579
     57 N5         -7.4900   -0.5860   -0.3670 n         1 MOL     -0.467166
     58 C19        -7.6560   -1.8550   -1.1600 c3        1 MOL      0.167860
     59 C20        -7.3590   -3.0660   -0.3110 c         1 MOL      0.300166
     60 O10        -7.4530   -4.1790   -0.8480 o         1 MOL     -0.563486
     61 C21        -6.6990   -1.8650   -2.3760 c3        1 MOL     -0.137307
     62 C22        -5.1970   -1.7400   -2.0680 c         1 MOL      0.729335
     63 O11        -4.4610   -1.3110   -2.9310 o         1 MOL     -0.716913
     64 O12        -4.6850   -1.9730   -0.9370 o         1 MOL     -0.716913
     65 H26        -6.5420   -0.4620   -0.0550 hn        1 MOL      0.266472
     66 H27        -8.6910   -1.9810   -1.4560 h1        1 MOL      0.060695
     67 H28        -6.9380   -0.9910   -2.9760 hc        1 MOL      0.028147
     68 H29        -6.8700   -2.7790   -2.9450 hc        1 MOL      0.028147
     69 N6         -6.8520   -2.9310    0.8620 n         1 MOL     -0.072159
     70 C23        -6.6420   -3.9780    1.9230 c3        1 MOL     -0.195643
     71 C24        -5.2470   -4.6700    2.0340 c         1 MOL      0.605272
     72 O13        -5.1580   -5.7740    2.5710 o         1 MOL     -0.578423
     73 H30        -6.6360   -1.9910    1.1630 hn        1 MOL      0.155265
     74 H31        -7.4050   -4.7260    1.7140 h1        1 MOL      0.078280
     75 H32        -6.8660   -3.4840    2.8750 h1        1 MOL      0.078280
     76 N7         -4.2050   -4.0030    1.4210 n         1 MOL     -0.351239
     77 C25        -2.8490   -4.4010    1.3630 c3        1 MOL      0.002873
     78 C26        -1.9270   -3.2030    1.3270 c         1 MOL      0.546621
     79 O14        -2.3010   -2.0680    1.0160 o         1 MOL     -0.601929
     80 C27        -2.6460   -5.4710    0.3130 c3        1 MOL      0.050656
     81 C28        -2.8300   -5.0150   -1.1620 c3        1 MOL     -0.175559
     82 C29        -1.7330   -4.1730   -1.8590 c         1 MOL      0.439175
     83 N8         -0.9280   -4.6530   -2.7840 n         1 MOL     -0.644988
     84 O15        -1.5060   -3.0150   -1.5550 o         1 MOL     -0.433128
     85 H33        -4.3850   -3.1380    0.9420 hn        1 MOL      0.287607
     86 H34        -2.5400   -4.8750    2.2890 h1        1 MOL      0.032283
     87 H35        -3.3050   -6.3200    0.5360 hc        1 MOL      0.002544
     88 H36        -1.6510   -5.9090    0.3720 hc        1 MOL      0.002544
     89 H37        -3.7900   -4.5060   -1.2740 hc        1 MOL      0.076455
     90 H38        -2.9270   -5.9020   -1.7800 hc        1 MOL      0.076455
     91 H39        -0.9210   -5.6420   -3.0030 hn        1 MOL      0.308906
     92 H40        -0.1170   -4.1160   -3.0490 hn        1 MOL      0.308906
     93 N9         -0.6350   -3.4720    1.5230 n         1 MOL     -0.422363
     94 C30         0.4480   -2.5520    1.8690 c3        1 MOL     -0.242845
     95 C31         1.6810   -2.9410    1.1280 c         1 MOL      0.646351
     96 O16         2.3720   -3.8270    1.5380 o         1 MOL     -0.602340
     97 C32         0.7140   -2.4040    3.3530 c3        1 MOL      0.363186
     98 C33         1.7550   -1.2710    3.5810 c3        1 MOL     -0.338547
     99 C34        -0.6200   -2.1110    4.0800 c3        1 MOL     -0.338547
    100 H41        -0.4100   -4.4530    1.6420 hn        1 MOL      0.286674
    101 H42         0.1780   -1.5570    1.4990 h1        1 MOL      0.197311
    102 H43         1.1980   -3.3200    3.6910 hc        1 MOL     -0.050395
    103 H44         1.2570   -0.3200    3.3630 hc        1 MOL      0.069517
    104 H45         2.1070   -1.3620    4.6040 hc        1 MOL      0.069517
    105 H46         2.5870   -1.5530    2.9330 hc        1 MOL      0.069517
    106 H47        -1.2070   -3.0220    4.1200 hc        1 MOL      0.069517
    107 H48        -0.4280   -1.7620    5.0970 hc        1 MOL      0.069517
    108 H49        -1.0970   -1.2970    3.5500 hc        1 MOL      0.069517
    109 N10         2.0270   -2.2710    0.0580 n         1 MOL     -0.353503
    110 C35         3.2650   -2.3510   -0.7410 c3        1 MOL      0.098887
    111 C36         4.4900   -1.8520    0.0020 c         1 MOL      0.370071
    112 O17         4.3600   -1.0620    0.9710 o         1 MOL     -0.335866
    113 C37         3.1120   -1.6970   -2.0620 c3        1 MOL     -0.113340
    114 C38         2.0740   -2.2040   -3.0820 c         1 MOL      0.569758
    115 N11         1.5440   -1.3800   -4.0130 n         1 MOL     -0.688560
    116 O18         1.7520   -3.3880   -3.1290 o         1 MOL     -0.516474
    117 H50         1.4350   -1.4840   -0.1730 hn        1 MOL      0.207016
    118 H51         3.4560   -3.4080   -0.9020 h1        1 MOL      0.051814
    119 H52         4.1140   -1.5570   -2.4870 hc        1 MOL     -0.007909
    120 H53         2.6770   -0.7180   -1.8580 hc        1 MOL     -0.007909
    121 H54         1.8900   -0.4290   -4.0480 hn        1 MOL      0.351026
    122 H55         1.0560   -1.8380   -4.7690 hn        1 MOL      0.351026
    123 N12         5.7030   -2.2930   -0.3640 n         1 MOL     -0.436867
    124 C39         6.9410   -1.7190    0.1920 c3        1 MOL      0.183624
    125 C40         7.0330   -0.1860   -0.0290 c         1 MOL      0.423095
    126 O19         7.2280    0.5330    0.9500 o         1 MOL     -0.563164
    127 C41         8.1920   -2.4270   -0.4090 c3        1 MOL     -0.155418
    128 C42         9.5840   -1.8920   -0.0550 ca        1 MOL     -0.049935
    129 C43        10.4050   -2.4400    1.0010 ca        1 MOL     -0.074944
    130 C44        10.1030   -0.7960   -0.7940 ca        1 MOL     -0.074944
    131 C45        11.7460   -1.9780    1.2260 ca        1 MOL     -0.336726
    132 C46        11.3930   -0.2160   -0.4620 ca        1 MOL     -0.336726
    133 C47        12.1620   -0.7500    0.5580 ca        1 MOL      0.424612
    134 O20        13.4080   -0.3110    0.8280 oh        1 MOL     -0.540126
    135 H56         5.9010   -3.0850   -0.9620 hn        1 MOL      0.279137
    136 H57         6.9650   -1.9050    1.2650 h1        1 MOL      0.063088
    137 H58         8.0770   -2.3720   -1.4920 hc        1 MOL      0.052066
    138 H59         8.0870   -3.4550   -0.0720 hc        1 MOL      0.052066
    139 H60         9.9520   -3.1680    1.6540 ha        1 MOL      0.123032
    140 H61         9.5770   -0.3310   -1.6140 ha        1 MOL      0.123032
    141 H62        12.3870   -2.4130    1.9800 ha        1 MOL      0.162545
    142 H63        11.6320    0.6680   -1.0350 ha        1 MOL      0.162545
    143 H64        13.7140    0.4110    0.2850 ho        1 MOL      0.386216
    144 N13         6.6680    0.3290   -1.1390 n         1 MOL     -0.102053
    145 C48         6.4200    1.7610   -1.4030 c3        1 MOL     -0.256270
    146 C49         5.3000    2.4330   -0.5730 c         1 MOL      0.484382
    147 O21         5.2200    3.6430   -0.5390 o         1 MOL     -0.541304
    148 C50         6.2640    2.0420   -2.8840 c3        1 MOL     -0.178112
    149 C51         4.9490    1.4640   -3.3940 c3        1 MOL      0.071636
    150 C52         4.9080    1.3840   -4.9340 c         1 MOL      0.573061
    151 O22         4.1760    2.2080   -5.5570 o         1 MOL     -0.707252
    152 O23         5.7320    0.5270   -5.4080 o         1 MOL     -0.707252
    153 H65         6.4730   -0.3630   -1.8470 hn        1 MOL      0.201330
    154 H66         7.2530    2.4330   -1.1620 h1        1 MOL      0.122936
    155 H67         7.0780    1.6650   -3.5040 hc        1 MOL      0.084255
    156 H68         6.1360    3.1160   -3.0650 hc        1 MOL      0.084255
    157 H69         4.1360    2.1430   -3.1410 hc        1 MOL     -0.002386
    158 H70         4.8210    0.4490   -3.0060 hc        1 MOL     -0.002386
    159 N14         4.4470    1.7730    0.2230 n         1 MOL     -0.195373
    160 C53         3.5680    2.4140    1.1680 c3        1 MOL     -0.010902
    161 C54         4.0460    2.2400    2.6660 c         1 MOL      0.328223
    162 O24         3.7080    3.0860    3.5230 o         1 MOL     -0.516091
    163 C55         2.1750    1.7320    1.0250 c3        1 MOL      0.208138
    164 C56         1.5790    1.7860   -0.4080 c3        1 MOL      0.130528
    165 C57         0.2720    0.9580   -0.5230 c         1 MOL      0.496848
    166 O25        -0.8640    1.4790   -0.3960 o         1 MOL     -0.660931
    167 O26         0.2890   -0.2550   -0.8410 o         1 MOL     -0.660931
    168 H71         4.4340    0.7620    0.2400 hn        1 MOL      0.163921
    169 H72         3.3860    3.4530    0.9070 h1        1 MOL      0.101377
    170 H73         1.4410    2.1250    1.7280 hc        1 MOL     -0.005508
    171 H74         2.2890    0.6750    1.2740 hc        1 MOL     -0.005508
    172 H75         2.2850    1.3630   -1.1260 hc        1 MOL     -0.041045
    173 H76         1.3660    2.8440   -0.5490 hc        1 MOL     -0.041045
    174 N15         4.9290    1.2330    2.9200 n         1 MOL     -0.051573
    175 C58         5.6280    0.9110    4.1460 c3        1 MOL     -0.199264
    176 H77         6.6960    0.8320    3.9440 h1        1 MOL      0.075290
    177 H78         5.4540    1.6980    4.8800 h1        1 MOL      0.075290
    178 H79         5.2610   -0.0380    4.5360 h1        1 MOL      0.075290
    179 H80         5.0440    0.5170    2.2180 hn        1 MOL      0.078510
    180 Ca1        -2.4370   -0.5390   -1.2570 Ca        1 MOL      1.685849
    181 O27        -1.2620   -0.7970   -3.6090 oh        1 MOL     -0.818012
    182 H81        -1.5720   -0.4720   -4.4580 ho        1 MOL      0.402001
    183 H82        -0.3300   -0.5750   -3.6010 ho        1 MOL      0.402001
@<TRIPOS>BOND
     1    1    2 1   
     2    1    4 1   
     3    1    5 1   
     4    1    6 1   
     5    2    3 2   
     6    2    7 1   
     7    7    8 1   
     8    7   15 1   
     9    8    9 1   
    10    8   11 1   
    11    8   16 1   
    12    9   10 2   
    13    9   19 1   
    14   11   12 1   
    15   11   17 1   
    16   11   18 1   
    17   12   13 1   
    18   12   14 1   
    19   19   20 1   
    20   19   27 1   
    21   20   21 1   
    22   20   23 1   
    23   20   28 1   
    24   21   22 2   
    25   21   38 1   
    26   23   24 1   
    27   23   25 1   
    28   23   29 1   
    29   24   26 1   
    30   24   30 1   
    31   24   31 1   
    32   25   32 1   
    33   25   33 1   
    34   25   34 1   
    35   26   35 1   
    36   26   36 1   
    37   26   37 1   
    38   38   39 1   
    39   38   46 1   
    40   39   40 1   
    41   39   42 1   
    42   39   47 1   
    43   40   41 2   
    44   40   50 1   
    45   42   43 1   
    46   42   48 1   
    47   42   49 1   
    48   43   44 1   
    49   43   45 1   
    50   50   51 1   
    51   50   54 1   
    52   51   52 1   
    53   51   55 1   
    54   51   56 1   
    55   52   53 2   
    56   52   57 1   
    57   57   58 1   
    58   57   65 1   
    59   58   59 1   
    60   58   61 1   
    61   58   66 1   
    62   59   60 2   
    63   59   69 1   
    64   61   62 1   
    65   61   67 1   
    66   61   68 1   
    67   62   63 1   
    68   62   64 1   
    69   69   70 1   
    70   69   73 1   
    71   70   71 1   
    72   70   74 1   
    73   70   75 1   
    74   71   72 2   
    75   71   76 1   
    76   76   77 1   
    77   76   85 1   
    78   77   78 1   
    79   77   80 1   
    80   77   86 1   
    81   78   79 2   
    82   78   93 1   
    83   80   81 1   
    84   80   87 1   
    85   80   88 1   
    86   81   82 1   
    87   81   89 1   
    88   81   90 1   
    89   82   83 1   
    90   82   84 2   
    91   83   91 1   
    92   83   92 1   
    93   93   94 1   
    94   93  100 1   
    95   94   95 1   
    96   94   97 1   
    97   94  101 1   
    98   95   96 2   
    99   95  109 1   
   100   97   98 1   
   101   97   99 1   
   102   97  102 1   
   103   98  103 1   
   104   98  104 1   
   105   98  105 1   
   106   99  106 1   
   107   99  107 1   
   108   99  108 1   
   109  109  110 1   
   110  109  117 1   
   111  110  111 1   
   112  110  113 1   
   113  110  118 1   
   114  111  112 2   
   115  111  123 1   
   116  113  114 1   
   117  113  119 1   
   118  113  120 1   
   119  114  115 1   
   120  114  116 2   
   121  115  121 1   
   122  115  122 1   
   123  123  124 1   
   124  123  135 1   
   125  124  125 1   
   126  124  127 1   
   127  124  136 1   
   128  125  126 2   
   129  125  144 1   
   130  127  128 1   
   131  127  137 1   
   132  127  138 1   
   133  128  129 ar  
   134  128  130 ar  
   135  129  131 ar  
   136  129  139 1   
   137  130  132 ar  
   138  130  140 1   
   139  131  133 ar  
   140  131  141 1   
   141  132  133 ar  
   142  132  142 1   
   143  133  134 1   
   144  134  143 1   
   145  144  145 1   
   146  144  153 1   
   147  145  146 1   
   148  145  148 1   
   149  145  154 1   
   150  146  147 2   
   151  146  159 1   
   152  148  149 1   
   153  148  155 1   
   154  148  156 1   
   155  149  150 1   
   156  149  157 1   
   157  149  158 1   
   158  150  151 1   
   159  150  152 1   
   160  159  160 1   
   161  159  168 1   
   162  160  161 1   
   163  160  163 1   
   164  160  169 1   
   165  161  162 2   
   166  161  174 1   
   167  163  164 1   
   168  163  170 1   
   169  163  171 1   
   170  164  165 1   
   171  164  172 1   
   172  164  173 1   
   173  165  166 1   
   174  165  167 1   
   175  174  175 1   
   176  174  179 1   
   177  175  176 1   
   178  175  177 1   
   179  175  178 1   
   180  181  182 1   
   181  181  183 1   
@<TRIPOS>SUBSTRUCTURE
     1 MOL         1 TEMP              0 ****  ****    0 ROOT
