@<TRIPOS>MOLECULE
MOL
  182   178     1     0     0
SMALL
resp


@<TRIPOS>ATOM
      1 C1          1.5690    2.7880    6.0150 c3        1 MOL     -0.261095
      2 C2          1.2760    2.5120    4.5200 c         1 MOL      0.733759
      3 O1          2.1730    2.2450    3.7190 o         1 MOL     -0.594817
      4 H1          1.4650    3.8540    6.2140 hc        1 MOL      0.064297
      5 H2          0.8630    2.2340    6.6340 hc        1 MOL      0.064297
      6 H3          2.5860    2.4720    6.2510 hc        1 MOL      0.064297
      7 N1          0.0300    2.7170    4.1680 n         1 MOL     -0.599094
      8 C3         -0.5060    2.5200    2.8220 c3        1 MOL      0.049766
      9 C4         -0.5520    3.8590    2.0630 c         1 MOL      0.518766
     10 O2         -1.0640    4.8960    2.5420 o         1 MOL     -0.570679
     11 C5         -1.8100    1.6330    2.7780 c3        1 MOL     -0.070754
     12 C6         -2.4690    1.3130    1.4310 c         1 MOL      0.809792
     13 O3         -3.4860    0.6410    1.3370 o         1 MOL     -0.778689
     14 O4         -2.0380    1.8430    0.4170 o         1 MOL     -0.778689
     15 H4         -0.5520    3.2030    4.8310 hn        1 MOL      0.330761
     16 H5          0.2360    1.9810    2.2290 h1        1 MOL      0.018597
     17 H6         -2.5620    2.0610    3.4450 hc        1 MOL      0.025888
     18 H7         -1.5350    0.6810    3.2530 hc        1 MOL      0.025888
     19 N2          0.0990    3.8710    0.9130 n         1 MOL     -0.185082
     20 C7          0.4900    5.1260    0.0950 c3        1 MOL     -0.060009
     21 C8         -0.7220    5.7350   -0.6920 c         1 MOL      0.509120
     22 O5         -0.8440    6.9770   -0.8430 o         1 MOL     -0.550938
     23 C9          1.6390    4.7790   -0.8140 c3        1 MOL     -0.146472
     24 C10         3.0610    4.5740   -0.1280 c3        1 MOL      0.142714
     25 C11         3.4140    5.9500    0.4500 c3        1 MOL     -0.089549
     26 C12         4.7900    6.0290    1.1030 c3        1 MOL     -0.118062
     27 N3          5.9120    6.0550    0.1660 n4        1 MOL     -0.341474
     28 H8          0.2900    2.9570    0.5410 hn        1 MOL      0.177253
     29 H9          0.7040    5.8960    0.8420 h1        1 MOL      0.081243
     30 H10         1.7500    5.5940   -1.5340 hc        1 MOL      0.024890
     31 H11         1.3520    3.9090   -1.4020 hc        1 MOL      0.024890
     32 H12         3.8070    4.2490   -0.8520 hc        1 MOL      0.025331
     33 H13         3.0000    3.8520    0.6820 hc        1 MOL      0.025331
     34 H14         2.7510    6.3170    1.2290 hc        1 MOL      0.060302
     35 H15         3.4710    6.6370   -0.3960 hc        1 MOL      0.060302
     36 H16         4.9450    5.2170    1.8200 hx        1 MOL      0.140277
     37 H17         4.6800    6.9640    1.6380 hx        1 MOL      0.140277
     38 H18         5.8610    6.9160   -0.3610 hn        1 MOL      0.325889
     39 H19         6.7930    6.2860    0.6070 hn        1 MOL      0.325889
     40 H20         5.9120    5.2800   -0.4790 hn        1 MOL      0.325889
     41 N4         -1.5770    4.8330   -1.1800 n         1 MOL     -0.236750
     42 C13        -2.8040    5.2460   -1.8960 c3        1 MOL      0.047053
     43 C14        -4.1580    4.8670   -1.1280 c         1 MOL      0.377828
     44 O6         -5.2310    5.3070   -1.4880 o         1 MOL     -0.524752
     45 C15        -2.7950    4.6250   -3.2890 c3        1 MOL     -0.183024
     46 C16        -2.7680    3.1020   -3.4750 c         1 MOL      0.783641
     47 O7         -2.8990    2.2330   -2.5510 o         1 MOL     -0.720832
     48 O8         -2.6690    2.7180   -4.6910 o         1 MOL     -0.720832
     49 H21        -1.4410    3.8720   -0.9040 hn        1 MOL      0.057584
     50 H22        -2.7480    6.3350   -1.8990 h1        1 MOL      0.107308
     51 H23        -1.9540    5.0560   -3.8290 hc        1 MOL      0.054414
     52 H24        -3.6040    5.0990   -3.8510 hc        1 MOL      0.054414
     53 N5         -4.0480    4.0010   -0.1480 n         1 MOL     -0.074917
     54 C17        -5.0990    3.6970    0.7950 c3        1 MOL     -0.297784
     55 C18        -6.0660    2.5610    0.4530 c         1 MOL      0.604532
     56 O9         -7.1280    2.4490    1.0680 o         1 MOL     -0.581038
     57 H25        -3.1580    3.5550    0.0400 hn        1 MOL      0.154098
     58 H26        -5.6920    4.6020    0.9410 h1        1 MOL      0.137222
     59 H27        -4.6890    3.3910    1.7570 h1        1 MOL      0.137222
     60 N6         -5.7700    1.6610   -0.5150 n         1 MOL     -0.344858
     61 C19        -6.6750    0.6260   -0.9990 c3        1 MOL      0.060624
     62 C20        -6.9420   -0.4300    0.1060 c         1 MOL      0.450825
     63 O10        -7.9550   -1.1220   -0.0620 o         1 MOL     -0.558148
     64 C21        -6.0480   -0.0270   -2.2820 c3        1 MOL     -0.136848
     65 C22        -4.8800   -1.0210   -2.0970 c         1 MOL      0.531335
     66 N7         -4.9540   -2.2230   -2.7220 n         1 MOL     -0.658636
     67 O11        -3.9060   -0.7330   -1.3630 o         1 MOL     -0.604290
     68 H28        -4.9270    1.7810   -1.0610 hn        1 MOL      0.254944
     69 H29        -7.6070    1.0380   -1.3690 h1        1 MOL      0.082609
     70 H30        -5.7770    0.7790   -2.9770 hc        1 MOL      0.068978
     71 H31        -6.8040   -0.5950   -2.8220 hc        1 MOL      0.068978
     72 H32        -5.7270   -2.3760   -3.3540 hn        1 MOL      0.345882
     73 H33        -4.1730   -2.8340   -2.5290 hn        1 MOL      0.345882
     74 N8         -6.0820   -0.6120    1.1130 n         1 MOL     -0.110450
     75 C23        -6.2520   -1.7610    2.0210 c3        1 MOL     -0.346001
     76 C24        -4.9830   -2.6330    2.1440 c         1 MOL      0.598200
     77 O12        -5.0590   -3.6650    2.8140 o         1 MOL     -0.550006
     78 H34        -5.2220   -0.1130    1.2570 hn        1 MOL      0.218039
     79 H35        -7.0200   -2.4570    1.7050 h1        1 MOL      0.159277
     80 H36        -6.5120   -1.3840    3.0160 h1        1 MOL      0.159277
     81 N9         -3.9120   -2.2880    1.4630 n         1 MOL     -0.500449
     82 C25        -2.7720   -3.1340    1.2400 c3        1 MOL      0.332355
     83 C26        -1.3840   -2.3440    1.0760 c         1 MOL      0.438996
     84 O13        -1.1960   -1.2160    0.6350 o         1 MOL     -0.523915
     85 C27        -2.8930   -4.0280    0.0060 c3        1 MOL      0.142308
     86 C28        -4.0400   -4.9300    0.0160 ca        1 MOL      0.027403
     87 C29        -5.3270   -4.5150   -0.2380 ca        1 MOL     -0.270567
     88 C30        -3.8560   -6.2910    0.2880 ca        1 MOL     -0.270567
     89 C31        -6.4300   -5.4260   -0.3370 ca        1 MOL     -0.025612
     90 C32        -4.9270   -7.2200    0.2610 ca        1 MOL     -0.025612
     91 C33        -6.1850   -6.8060   -0.1630 ca        1 MOL      0.105296
     92 O14        -7.2400   -7.6520   -0.1960 oh        1 MOL     -0.454852
     93 H37        -3.7620   -1.3600    1.0990 hn        1 MOL      0.295804
     94 H38        -2.6260   -3.8120    2.0890 h1        1 MOL     -0.014868
     95 H39        -1.9600   -4.5530   -0.1900 hc        1 MOL     -0.049787
     96 H40        -3.0150   -3.3220   -0.8160 hc        1 MOL     -0.049787
     97 H41        -5.4890   -3.4940   -0.5290 ha        1 MOL      0.121108
     98 H42        -2.8710   -6.6710    0.4860 ha        1 MOL      0.121108
     99 H43        -7.4390   -5.1510   -0.6240 ha        1 MOL      0.095880
    100 H44        -4.6520   -8.2390    0.5130 ha        1 MOL      0.095880
    101 H45        -7.1600   -8.5360    0.1570 ho        1 MOL      0.372688
    102 N10        -0.3500   -3.0490    1.6260 n         1 MOL     -0.554200
    103 C34         1.0480   -2.4840    1.6830 c3        1 MOL      0.135431
    104 C35         1.9980   -3.3800    0.9050 c         1 MOL      0.401858
    105 O15         2.2950   -4.4540    1.3840 o         1 MOL     -0.526143
    106 C36         1.4530   -2.3520    3.1480 c3        1 MOL      0.004393
    107 C37         0.4870   -1.4800    4.0830 c3        1 MOL      0.091526
    108 C38         2.8290   -1.7370    3.2200 c3        1 MOL     -0.133396
    109 C39         0.7070   -1.8940    5.5790 c3        1 MOL     -0.136828
    110 H46        -0.5590   -3.8770    2.1820 hn        1 MOL      0.318340
    111 H47         1.0560   -1.5440    1.1340 h1        1 MOL      0.067344
    112 H48         1.4870   -3.2980    3.6900 hc        1 MOL      0.028505
    113 H49        -0.5270   -1.6800    3.7350 hc        1 MOL     -0.012973
    114 H50         0.7620   -0.4240    3.9750 hc        1 MOL     -0.012973
    115 H51         2.8000   -0.6910    2.8960 hc        1 MOL      0.039187
    116 H52         3.1420   -1.6450    4.2520 hc        1 MOL      0.039187
    117 H53         3.6260   -2.2960    2.7210 hc        1 MOL      0.039187
    118 H54         1.7320   -1.9810    5.9460 hc        1 MOL      0.033812
    119 H55         0.2280   -1.1350    6.2020 hc        1 MOL      0.033812
    120 H56         0.1300   -2.7790    5.8430 hc        1 MOL      0.033812
    121 N11         2.5200   -2.9250   -0.2230 n         1 MOL     -0.153004
    122 C40         3.4280   -3.6090   -1.1360 c3        1 MOL      0.020293
    123 C41         4.8670   -3.5930   -0.5880 c         1 MOL      0.320943
    124 O16         5.1950   -2.8000    0.3480 o         1 MOL     -0.350147
    125 C42         3.4400   -3.0620   -2.5270 c3        1 MOL     -0.251649
    126 O17         4.2890   -1.9360   -2.7170 oh        1 MOL     -0.452897
    127 H57         2.1460   -2.0270   -0.4830 hn        1 MOL      0.158289
    128 H58         3.1350   -4.6480   -1.2410 h1        1 MOL      0.086902
    129 H59         2.4490   -2.6710   -2.7130 h1        1 MOL      0.143748
    130 H60         3.7100   -3.7630   -3.3160 h1        1 MOL      0.143748
    131 H61         3.8840   -1.3300   -3.3490 ho        1 MOL      0.408966
    132 N12         5.7540   -4.4230   -1.2210 n         1 MOL     -0.336286
    133 C43         7.2110   -4.3990   -1.0970 c3        1 MOL      0.154142
    134 C44         7.9830   -3.0660   -1.4260 c         1 MOL      0.496522
    135 O18         8.9380   -2.7510   -0.7310 o         1 MOL     -0.519356
    136 C45         7.7430   -5.5450   -1.9760 c3        1 MOL     -0.397128
    137 H62         5.4270   -5.0740   -1.9220 hn        1 MOL      0.266328
    138 H63         7.4310   -4.6580   -0.0550 h1        1 MOL      0.070873
    139 H64         7.4830   -5.3260   -3.0070 hc        1 MOL      0.118842
    140 H65         8.8170   -5.5660   -1.8270 hc        1 MOL      0.118842
    141 H66         7.3090   -6.4390   -1.5350 hc        1 MOL      0.118842
    142 N13         7.4480   -2.2360   -2.3330 n         1 MOL     -0.465793
    143 C46         7.7380   -0.8330   -2.4280 c3        1 MOL      0.192859
    144 C47         7.1620    0.0840   -1.3640 c         1 MOL      0.300805
    145 O19         7.8350    1.0090   -1.0330 o         1 MOL     -0.542507
    146 C48         7.2610   -0.2960   -3.7890 c3        1 MOL     -0.314739
    147 H67         6.6050   -2.6000   -2.7490 hn        1 MOL      0.249348
    148 H68         8.8260   -0.6890   -2.4150 h1        1 MOL      0.103190
    149 H69         7.8180    0.6200   -4.0000 hc        1 MOL      0.084221
    150 H70         7.6950   -0.9020   -4.5870 hc        1 MOL      0.084221
    151 H71         6.1740   -0.3250   -3.8860 hc        1 MOL      0.084221
    152 N14         5.9960   -0.1420   -0.8370 n         1 MOL      0.049642
    153 C49         5.3390    0.7370    0.1520 c3        1 MOL     -0.167072
    154 C50         5.8970    0.5990    1.5610 c         1 MOL      0.423831
    155 O20         5.8560    1.5860    2.3550 o         1 MOL     -0.527777
    156 C51         3.7960    0.3850    0.0810 c3        1 MOL     -0.185847
    157 C52         3.0470    0.9090   -1.2190 c3        1 MOL      0.032448
    158 C53         1.5390    0.6520   -1.0580 c         1 MOL      0.642052
    159 O21         0.6820    1.4830   -0.6160 o         1 MOL     -0.665782
    160 O22         1.1160   -0.3880   -1.5430 o         1 MOL     -0.665782
    161 H72         5.5490   -0.9190   -1.3050 hn        1 MOL      0.100872
    162 H73         5.4660    1.7950   -0.0830 h1        1 MOL      0.091704
    163 H74         3.2920    0.7710    0.9610 hc        1 MOL      0.120141
    164 H75         3.6960   -0.7010    0.1110 hc        1 MOL      0.120141
    165 H76         3.4720    0.4230   -2.0920 hc        1 MOL     -0.053789
    166 H77         3.1030    1.9980   -1.2220 hc        1 MOL     -0.053789
    167 N15         6.3910   -0.6320    1.8850 n         1 MOL     -0.148573
    168 C54         6.8870   -1.1290    3.2240 c3        1 MOL     -0.202854
    169 H78         6.0930   -1.6860    3.7210 h1        1 MOL      0.096785
    170 H79         7.7480   -1.7800    3.0740 h1        1 MOL      0.096785
    171 H80         7.1770   -0.2800    3.8430 h1        1 MOL      0.096785
    172 H81         6.3970   -1.3950    1.2220 hn        1 MOL      0.156904
    173 Ca1        -1.4430    0.3570   -1.5940 Ca        1 MOL      1.840923
    174 O23        -0.2850    1.6730   -3.7370 oh        1 MOL     -0.850661
    175 H82         0.4040    2.3360   -3.8100 ho        1 MOL      0.399600
    176 H83        -0.9490    1.9510   -4.3740 ho        1 MOL      0.399600
    177 O24        -2.4580    0.0200   -4.5860 oh        1 MOL     -0.850661
    178 H84        -2.6930   -0.6650   -5.2120 ho        1 MOL      0.399600
    179 H85        -2.6160    0.8420   -5.0690 ho        1 MOL      0.399600
    180 O25        -1.0200   -2.1260   -2.6150 oh        1 MOL     -0.850661
    181 H86        -0.9190   -2.9850   -2.2150 ho        1 MOL      0.399600
    182 H87        -0.8960   -2.2870   -3.5510 ho        1 MOL      0.399600
@<TRIPOS>BOND
     1    1    2 1   
     2    1    4 1   
     3    1    5 1   
     4    1    6 1   
     5    2    3 2   
     6    2    7 1   
     7    7    8 1   
     8    7   15 1   
     9    8    9 1   
    10    8   11 1   
    11    8   16 1   
    12    9   10 2   
    13    9   19 1   
    14   11   12 1   
    15   11   17 1   
    16   11   18 1   
    17   12   13 1   
    18   12   14 1   
    19   19   20 1   
    20   19   28 1   
    21   20   21 1   
    22   20   23 1   
    23   20   29 1   
    24   21   22 2   
    25   21   41 1   
    26   23   24 1   
    27   23   30 1   
    28   23   31 1   
    29   24   25 1   
    30   24   32 1   
    31   24   33 1   
    32   25   26 1   
    33   25   34 1   
    34   25   35 1   
    35   26   27 1   
    36   26   36 1   
    37   26   37 1   
    38   27   38 1   
    39   27   39 1   
    40   27   40 1   
    41   41   42 1   
    42   41   49 1   
    43   42   43 1   
    44   42   45 1   
    45   42   50 1   
    46   43   44 2   
    47   43   53 1   
    48   45   46 1   
    49   45   51 1   
    50   45   52 1   
    51   46   47 1   
    52   46   48 1   
    53   53   54 1   
    54   53   57 1   
    55   54   55 1   
    56   54   58 1   
    57   54   59 1   
    58   55   56 2   
    59   55   60 1   
    60   60   61 1   
    61   60   68 1   
    62   61   62 1   
    63   61   64 1   
    64   61   69 1   
    65   62   63 2   
    66   62   74 1   
    67   64   65 1   
    68   64   70 1   
    69   64   71 1   
    70   65   66 1   
    71   65   67 2   
    72   66   72 1   
    73   66   73 1   
    74   74   75 1   
    75   74   78 1   
    76   75   76 1   
    77   75   79 1   
    78   75   80 1   
    79   76   77 2   
    80   76   81 1   
    81   81   82 1   
    82   81   93 1   
    83   82   83 1   
    84   82   85 1   
    85   82   94 1   
    86   83   84 2   
    87   83  102 1   
    88   85   86 1   
    89   85   95 1   
    90   85   96 1   
    91   86   87 ar  
    92   86   88 ar  
    93   87   89 ar  
    94   87   97 1   
    95   88   90 ar  
    96   88   98 1   
    97   89   91 ar  
    98   89   99 1   
    99   90   91 ar  
   100   90  100 1   
   101   91   92 1   
   102   92  101 1   
   103  102  103 1   
   104  102  110 1   
   105  103  104 1   
   106  103  106 1   
   107  103  111 1   
   108  104  105 2   
   109  104  121 1   
   110  106  107 1   
   111  106  108 1   
   112  106  112 1   
   113  107  109 1   
   114  107  113 1   
   115  107  114 1   
   116  108  115 1   
   117  108  116 1   
   118  108  117 1   
   119  109  118 1   
   120  109  119 1   
   121  109  120 1   
   122  121  122 1   
   123  121  127 1   
   124  122  123 1   
   125  122  125 1   
   126  122  128 1   
   127  123  124 2   
   128  123  132 1   
   129  125  126 1   
   130  125  129 1   
   131  125  130 1   
   132  126  131 1   
   133  132  133 1   
   134  132  137 1   
   135  133  134 1   
   136  133  136 1   
   137  133  138 1   
   138  134  135 2   
   139  134  142 1   
   140  136  139 1   
   141  136  140 1   
   142  136  141 1   
   143  142  143 1   
   144  142  147 1   
   145  143  144 1   
   146  143  146 1   
   147  143  148 1   
   148  144  145 2   
   149  144  152 1   
   150  146  149 1   
   151  146  150 1   
   152  146  151 1   
   153  152  153 1   
   154  152  161 1   
   155  153  154 1   
   156  153  156 1   
   157  153  162 1   
   158  154  155 2   
   159  154  167 1   
   160  156  157 1   
   161  156  163 1   
   162  156  164 1   
   163  157  158 1   
   164  157  165 1   
   165  157  166 1   
   166  158  159 1   
   167  158  160 1   
   168  167  168 1   
   169  167  172 1   
   170  168  169 1   
   171  168  170 1   
   172  168  171 1   
   173  174  175 1   
   174  174  176 1   
   175  177  178 1   
   176  177  179 1   
   177  180  181 1   
   178  180  182 1   
@<TRIPOS>SUBSTRUCTURE
     1 MOL         1 TEMP              0 ****  ****    0 ROOT
