@<TRIPOS>MOLECULE
MOL
  189   185     1     0     0
SMALL
resp


@<TRIPOS>ATOM
      1 C1          0.8830   -2.7290    6.2420 c3        1 MOL     -0.458126
      2 C2          1.2930   -2.6960    4.7640 c         1 MOL      0.716609
      3 O1          0.8860   -1.7070    4.0850 o         1 MOL     -0.569250
      4 H1          0.3880   -3.6760    6.4600 hc        1 MOL      0.122945
      5 H2          1.7700   -2.6310    6.8680 hc        1 MOL      0.122945
      6 H3          0.1990   -1.9060    6.4490 hc        1 MOL      0.122945
      7 N1          2.2250   -3.5210    4.2590 n         1 MOL     -0.666718
      8 C3          2.7670   -3.4020    2.8890 c3        1 MOL      0.357706
      9 C4          2.9060   -4.7250    2.1720 c         1 MOL      0.347007
     10 O2          3.3770   -5.7240    2.6970 o         1 MOL     -0.587491
     11 C5          4.2430   -2.8230    3.0560 c3        1 MOL     -0.153695
     12 C6          4.9300   -2.5330    1.6340 c         1 MOL      0.609869
     13 O3          4.1050   -2.2200    0.6750 o         1 MOL     -0.615383
     14 O4          6.1560   -2.5940    1.5500 o         1 MOL     -0.615383
     15 H4          2.6770   -4.0910    4.9650 hn        1 MOL      0.330199
     16 H5          2.1820   -2.7980    2.1970 h1        1 MOL     -0.001233
     17 H6          4.8260   -3.4670    3.7020 hc        1 MOL      0.007491
     18 H7          4.1740   -1.8530    3.5480 hc        1 MOL      0.007491
     19 N2          2.5460   -4.6830    0.9560 n         1 MOL      0.030549
     20 C7          2.7430   -5.8170    0.0030 c3        1 MOL     -0.152779
     21 C8          3.3200   -5.4640   -1.3770 c         1 MOL      0.402196
     22 O5          3.5470   -6.3280   -2.2360 o         1 MOL     -0.568447
     23 C9          1.3710   -6.5780   -0.1140 c3        1 MOL      0.211302
     24 C10         0.3560   -5.6160   -0.7860 c3        1 MOL      0.083623
     25 C11         0.9250   -7.2590    1.1920 c3        1 MOL     -0.161684
     26 C12        -0.9850   -6.2000   -1.1820 c3        1 MOL     -0.292979
     27 H8          2.0030   -3.8780    0.6600 hn        1 MOL      0.038743
     28 H9          3.4100   -6.5550    0.4490 h1        1 MOL      0.113663
     29 H10         1.5360   -7.3550   -0.8610 hc        1 MOL     -0.055002
     30 H11         0.8060   -5.0960   -1.6270 hc        1 MOL      0.053995
     31 H12         0.1060   -4.8770   -0.0290 hc        1 MOL      0.053995
     32 H13         0.6860   -6.5260    1.9680 hc        1 MOL      0.025218
     33 H14        -0.0070   -7.7940    1.0330 hc        1 MOL      0.025218
     34 H15         1.6500   -7.9620    1.6180 hc        1 MOL      0.025218
     35 H16        -1.4870   -6.6140   -0.3130 hc        1 MOL      0.059863
     36 H17        -1.4920   -5.4020   -1.7130 hc        1 MOL      0.059863
     37 H18        -0.8700   -7.0910   -1.7990 hc        1 MOL      0.059863
     38 N3          3.7140   -4.2490   -1.6830 n         1 MOL     -0.208350
     39 C13         4.3180   -3.8350   -2.9450 c3        1 MOL      0.015177
     40 C14         5.4720   -2.7590   -2.8460 c         1 MOL      0.480431
     41 O6          6.0500   -2.3330   -3.8220 o         1 MOL     -0.549268
     42 C15         3.1720   -3.3050   -3.7360 c3        1 MOL     -0.277105
     43 C16         2.5400   -1.9730   -3.2650 c         1 MOL      0.810274
     44 O7          2.9270   -1.3440   -2.2720 o         1 MOL     -0.724620
     45 O8          1.5920   -1.5070   -3.9680 o         1 MOL     -0.724620
     46 H19         3.6300   -3.5680   -0.9470 hn        1 MOL      0.146653
     47 H20         4.7690   -4.6740   -3.4720 h1        1 MOL      0.100123
     48 H21         2.3390   -4.0020   -3.8360 hc        1 MOL      0.071025
     49 H22         3.5900   -3.0350   -4.7020 hc        1 MOL      0.071025
     50 N4          5.8670   -2.4060   -1.6210 n         1 MOL     -0.371398
     51 C17         7.0710   -1.5350   -1.3820 c3        1 MOL     -0.040118
     52 C18         7.2270   -0.1650   -1.9650 c         1 MOL      0.530201
     53 O9          8.3340    0.3400   -1.8790 o         1 MOL     -0.639758
     54 H23         5.3450   -2.7680   -0.8380 hn        1 MOL      0.216173
     55 H24         7.9580   -2.0640   -1.7200 h1        1 MOL      0.066428
     56 H25         7.2100   -1.3180   -0.3210 h1        1 MOL      0.066428
     57 N5          6.1620    0.4520   -2.4220 n         1 MOL     -0.227173
     58 C19         6.0700    1.8190   -2.9660 c3        1 MOL     -0.009882
     59 C20         6.2410    2.9670   -1.9990 c         1 MOL      0.388902
     60 O10         6.2030    4.1520   -2.3430 o         1 MOL     -0.531780
     61 C21         4.7710    2.0360   -3.7680 c3        1 MOL     -0.230498
     62 C22         3.4760    1.9120   -2.9420 c         1 MOL      0.807083
     63 O11         3.5590    1.5130   -1.7860 o         1 MOL     -0.698966
     64 O12         2.4290    2.2870   -3.4390 o         1 MOL     -0.698966
     65 H26         5.2680   -0.0050   -2.2500 hn        1 MOL      0.188992
     66 H27         6.8520    1.8730   -3.7120 h1        1 MOL      0.092368
     67 H28         4.7160    1.2680   -4.5290 hc        1 MOL      0.060837
     68 H29         4.8890    3.0030   -4.2720 hc        1 MOL      0.060837
     69 N6          6.4560    2.6260   -0.7120 n         1 MOL     -0.127560
     70 C23         6.8890    3.5310    0.2890 c3        1 MOL     -0.357318
     71 C24         5.7120    4.1730    0.9780 c         1 MOL      0.541192
     72 O13         5.8350    4.9080    1.9670 o         1 MOL     -0.585353
     73 H30         6.5270    1.6400   -0.4920 hn        1 MOL      0.258766
     74 H31         7.6000    4.2580   -0.1030 h1        1 MOL      0.145561
     75 H32         7.3910    2.8380    0.9680 h1        1 MOL      0.145561
     76 N7          4.4510    3.8230    0.6390 n         1 MOL     -0.282649
     77 C25         3.2620    4.4110    1.2970 c3        1 MOL      0.054177
     78 C26         2.0790    3.4890    1.3710 c         1 MOL      0.403332
     79 O14         1.9640    2.6430    0.5080 o         1 MOL     -0.512817
     80 C27         2.8480    5.6790    0.5180 c3        1 MOL     -0.067932
     81 C28         3.8940    6.6680    0.2560 c3        1 MOL     -0.300745
     82 C29         3.3900    7.8560   -0.4630 c         1 MOL      0.671219
     83 N8          3.3400    7.7840   -1.7900 n         1 MOL     -0.801859
     84 O15         3.1390    8.9420    0.0800 o         1 MOL     -0.591754
     85 H33         4.3140    3.2120   -0.1510 hn        1 MOL      0.219685
     86 H34         3.5550    4.7100    2.3060 h1        1 MOL      0.052901
     87 H35         2.0540    6.1920    1.0550 hc        1 MOL      0.072865
     88 H36         2.3910    5.3840   -0.4220 hc        1 MOL      0.072865
     89 H37         4.7370    6.2400   -0.2910 hc        1 MOL      0.119949
     90 H38         4.2000    6.9580    1.2590 hc        1 MOL      0.119949
     91 H39         3.5100    6.8970   -2.2390 hn        1 MOL      0.367764
     92 H40         3.0710    8.5840   -2.3320 hn        1 MOL      0.367764
     93 N9          1.0680    3.7260    2.2540 n         1 MOL     -0.526250
     94 C30        -0.1660    2.9400    2.3170 c3        1 MOL     -0.011692
     95 C31        -1.2040    3.3810    1.3050 c         1 MOL      0.531357
     96 O16        -1.6670    4.5320    1.3820 o         1 MOL     -0.609571
     97 C32        -0.6140    2.7080    3.8110 c3        1 MOL      0.262447
     98 C33        -2.1110    2.5190    4.0080 c3        1 MOL     -0.333013
     99 C34         0.2460    1.6420    4.4350 c3        1 MOL     -0.333013
    100 H41         1.0270    4.5540    2.8320 hn        1 MOL      0.291562
    101 H42         0.1580    1.9350    2.0340 h1        1 MOL      0.324351
    102 H43        -0.2820    3.6020    4.3430 hc        1 MOL     -0.039434
    103 H44        -2.3870    1.5660    3.5530 hc        1 MOL      0.064226
    104 H45        -2.2760    2.4320    5.0820 hc        1 MOL      0.064226
    105 H46        -2.6960    3.2620    3.4600 hc        1 MOL      0.064226
    106 H47         0.0300    0.7330    3.8730 hc        1 MOL      0.064226
    107 H48         1.2870    1.9450    4.3010 hc        1 MOL      0.064226
    108 H49         0.0000    1.7250    5.4950 hc        1 MOL      0.064226
    109 N10        -1.6670    2.4750    0.4670 n         1 MOL     -0.156358
    110 C35        -2.7790    2.7610   -0.4570 c3        1 MOL      0.096243
    111 C36        -4.0950    2.3750    0.2550 c         1 MOL      0.281208
    112 O17        -4.1060    1.6950    1.2770 o         1 MOL     -0.230636
    113 C37        -2.4550    2.0320   -1.8290 c3        1 MOL     -0.290110
    114 C38        -2.9670    0.5360   -1.7780 c         1 MOL      0.700250
    115 N11        -2.1740   -0.4590   -1.6170 n         1 MOL     -0.706726
    116 O18        -4.1370    0.3680   -2.0410 o         1 MOL     -0.576273
    117 H50        -1.1330    1.6290    0.3300 hn        1 MOL      0.053388
    118 H51        -2.8320    3.8200   -0.6880 h1        1 MOL      0.067552
    119 H52        -1.4080    1.8890   -2.1140 hc        1 MOL      0.101792
    120 H53        -3.0500    2.6050   -2.5460 hc        1 MOL      0.101792
    121 H54        -1.2050   -0.2520   -1.4480 hn        1 MOL      0.396660
    122 H55        -2.4780   -1.4030   -1.7700 hn        1 MOL      0.396660
    123 N12        -5.3020    2.7980   -0.1440 n         1 MOL     -0.463094
    124 C39        -6.5060    2.4960    0.5830 c3        1 MOL      0.126196
    125 C40        -6.8060    0.9300    0.7170 c         1 MOL      0.441890
    126 O19        -7.5040    0.4870    1.6320 o         1 MOL     -0.575814
    127 C41        -7.6620    3.2840   -0.0090 c3        1 MOL     -0.120179
    128 C42        -8.5060    2.4720   -1.0770 ca        1 MOL      0.024350
    129 C43        -9.7100    1.7820   -0.7280 ca        1 MOL     -0.178382
    130 C44        -8.0850    2.4710   -2.4180 ca        1 MOL     -0.178382
    131 C45       -10.3860    1.0550   -1.6900 ca        1 MOL     -0.313304
    132 C46        -8.8210    1.7890   -3.4310 ca        1 MOL     -0.313304
    133 C47        -9.9170    0.9550   -3.0110 ca        1 MOL      0.436175
    134 O20       -10.8290    0.3850   -3.8900 oh        1 MOL     -0.504332
    135 H56        -5.4680    3.1700   -1.0720 hn        1 MOL      0.314236
    136 H57        -6.4030    2.7940    1.6270 h1        1 MOL      0.067393
    137 H58        -7.3130    4.2310   -0.4100 hc        1 MOL      0.038353
    138 H59        -8.3730    3.4600    0.7970 hc        1 MOL      0.038353
    139 H60       -10.0150    1.8430    0.3140 ha        1 MOL      0.144910
    140 H61        -7.1960    3.0390   -2.6620 ha        1 MOL      0.144910
    141 H62       -11.3080    0.5700   -1.4260 ha        1 MOL      0.173904
    142 H63        -8.4960    1.8730   -4.4560 ha        1 MOL      0.173904
    143 H64       -11.5510   -0.0120   -3.4030 ho        1 MOL      0.343311
    144 N13        -6.2410    0.0580   -0.1610 n         1 MOL     -0.070552
    145 C48        -6.5130   -1.3860    0.0090 c3        1 MOL      0.012214
    146 C49        -5.5150   -1.9420    1.0440 c         1 MOL      0.217041
    147 O21        -5.7670   -3.0060    1.5980 o         1 MOL     -0.513944
    148 C50        -6.3280   -2.1060   -1.3130 c3        1 MOL     -0.196303
    149 C51        -7.4130   -1.6750   -2.3800 c3        1 MOL     -0.139219
    150 C52        -7.4180   -2.6280   -3.5810 c         1 MOL      0.693325
    151 O22        -8.3440   -3.5160   -3.5200 o         1 MOL     -0.745069
    152 O23        -6.6300   -2.4800   -4.5450 o         1 MOL     -0.745069
    153 H65        -5.5880    0.3910   -0.8570 hn        1 MOL      0.100447
    154 H66        -7.5210   -1.5720    0.3580 h1        1 MOL      0.112674
    155 H67        -6.5460   -3.1620   -1.1810 hc        1 MOL      0.086596
    156 H68        -5.3210   -1.8860   -1.6780 hc        1 MOL      0.086596
    157 H69        -7.2450   -0.6580   -2.7300 hc        1 MOL      0.030549
    158 H70        -8.3880   -1.6510   -1.8970 hc        1 MOL      0.030549
    159 N14        -4.4060   -1.2740    1.2790 n         1 MOL      0.025505
    160 C53        -3.5230   -1.5930    2.3750 c3        1 MOL     -0.015959
    161 C54        -3.9980   -0.9780    3.7200 c         1 MOL      0.470151
    162 O24        -3.7580   -1.5620    4.7540 o         1 MOL     -0.555036
    163 C55        -2.1530   -1.0550    2.0080 c3        1 MOL      0.033722
    164 C56        -1.3900   -2.0460    1.1340 c3        1 MOL     -0.362912
    165 C57        -0.0640   -1.3170    0.6240 c         1 MOL      0.749605
    166 O25         0.7940   -2.0030    0.0390 o         1 MOL     -0.736566
    167 O26         0.0410   -0.0750    0.6800 o         1 MOL     -0.736566
    168 H71        -4.1980   -0.4250    0.7840 hn        1 MOL      0.034854
    169 H72        -3.5010   -2.6580    2.6130 h1        1 MOL      0.067566
    170 H73        -1.5850   -0.8970    2.9310 hc        1 MOL      0.030098
    171 H74        -2.2690   -0.0440    1.6210 hc        1 MOL      0.030098
    172 H75        -1.9920   -2.3050    0.2620 hc        1 MOL      0.086060
    173 H76        -1.1080   -2.9620    1.6590 hc        1 MOL      0.086060
    174 N15        -4.7820    0.1440    3.6600 n         1 MOL     -0.109906
    175 C58        -5.2470    0.8490    4.8180 c3        1 MOL     -0.197879
    176 H77        -5.6080    0.1340    5.5580 h1        1 MOL      0.071598
    177 H78        -4.4290    1.4290    5.2440 h1        1 MOL      0.071598
    178 H79        -6.0590    1.5180    4.5340 h1        1 MOL      0.071598
    179 H80        -4.8210    0.6240    2.7790 hn        1 MOL      0.065004
    180 Ca1         2.5070   -0.0330   -0.1160 Ca        1 MOL      1.700521
    181 O27         2.2950   -0.0420    2.7930 oh        1 MOL     -0.858893
    182 H81         2.8580    0.3590    3.4600 ho        1 MOL      0.403772
    183 H82         1.5680   -0.4200    3.2900 ho        1 MOL      0.403772
    184 O28         4.8580    0.6300    0.9500 oh        1 MOL     -0.858893
    185 H83         5.3000   -0.2010    1.1380 ho        1 MOL      0.403772
    186 H84         4.9730    1.1450    1.7460 ho        1 MOL      0.403772
    187 O29         0.7420    0.4140   -2.2320 oh        1 MOL     -0.858893
    188 H85         0.8410   -0.3520   -2.8000 ho        1 MOL      0.403772
    189 H86         1.3950    1.0340   -2.5530 ho        1 MOL      0.403772
@<TRIPOS>BOND
     1    1    2 1   
     2    1    4 1   
     3    1    5 1   
     4    1    6 1   
     5    2    3 2   
     6    2    7 1   
     7    7    8 1   
     8    7   15 1   
     9    8    9 1   
    10    8   11 1   
    11    8   16 1   
    12    9   10 2   
    13    9   19 1   
    14   11   12 1   
    15   11   17 1   
    16   11   18 1   
    17   12   13 1   
    18   12   14 1   
    19   19   20 1   
    20   19   27 1   
    21   20   21 1   
    22   20   23 1   
    23   20   28 1   
    24   21   22 2   
    25   21   38 1   
    26   23   24 1   
    27   23   25 1   
    28   23   29 1   
    29   24   26 1   
    30   24   30 1   
    31   24   31 1   
    32   25   32 1   
    33   25   33 1   
    34   25   34 1   
    35   26   35 1   
    36   26   36 1   
    37   26   37 1   
    38   38   39 1   
    39   38   46 1   
    40   39   40 1   
    41   39   42 1   
    42   39   47 1   
    43   40   41 2   
    44   40   50 1   
    45   42   43 1   
    46   42   48 1   
    47   42   49 1   
    48   43   44 1   
    49   43   45 1   
    50   50   51 1   
    51   50   54 1   
    52   51   52 1   
    53   51   55 1   
    54   51   56 1   
    55   52   53 2   
    56   52   57 1   
    57   57   58 1   
    58   57   65 1   
    59   58   59 1   
    60   58   61 1   
    61   58   66 1   
    62   59   60 2   
    63   59   69 1   
    64   61   62 1   
    65   61   67 1   
    66   61   68 1   
    67   62   63 1   
    68   62   64 1   
    69   69   70 1   
    70   69   73 1   
    71   70   71 1   
    72   70   74 1   
    73   70   75 1   
    74   71   72 2   
    75   71   76 1   
    76   76   77 1   
    77   76   85 1   
    78   77   78 1   
    79   77   80 1   
    80   77   86 1   
    81   78   79 2   
    82   78   93 1   
    83   80   81 1   
    84   80   87 1   
    85   80   88 1   
    86   81   82 1   
    87   81   89 1   
    88   81   90 1   
    89   82   83 1   
    90   82   84 2   
    91   83   91 1   
    92   83   92 1   
    93   93   94 1   
    94   93  100 1   
    95   94   95 1   
    96   94   97 1   
    97   94  101 1   
    98   95   96 2   
    99   95  109 1   
   100   97   98 1   
   101   97   99 1   
   102   97  102 1   
   103   98  103 1   
   104   98  104 1   
   105   98  105 1   
   106   99  106 1   
   107   99  107 1   
   108   99  108 1   
   109  109  110 1   
   110  109  117 1   
   111  110  111 1   
   112  110  113 1   
   113  110  118 1   
   114  111  112 2   
   115  111  123 1   
   116  113  114 1   
   117  113  119 1   
   118  113  120 1   
   119  114  115 1   
   120  114  116 2   
   121  115  121 1   
   122  115  122 1   
   123  123  124 1   
   124  123  135 1   
   125  124  125 1   
   126  124  127 1   
   127  124  136 1   
   128  125  126 2   
   129  125  144 1   
   130  127  128 1   
   131  127  137 1   
   132  127  138 1   
   133  128  129 ar  
   134  128  130 ar  
   135  129  131 ar  
   136  129  139 1   
   137  130  132 ar  
   138  130  140 1   
   139  131  133 ar  
   140  131  141 1   
   141  132  133 ar  
   142  132  142 1   
   143  133  134 1   
   144  134  143 1   
   145  144  145 1   
   146  144  153 1   
   147  145  146 1   
   148  145  148 1   
   149  145  154 1   
   150  146  147 2   
   151  146  159 1   
   152  148  149 1   
   153  148  155 1   
   154  148  156 1   
   155  149  150 1   
   156  149  157 1   
   157  149  158 1   
   158  150  151 1   
   159  150  152 1   
   160  159  160 1   
   161  159  168 1   
   162  160  161 1   
   163  160  163 1   
   164  160  169 1   
   165  161  162 2   
   166  161  174 1   
   167  163  164 1   
   168  163  170 1   
   169  163  171 1   
   170  164  165 1   
   171  164  172 1   
   172  164  173 1   
   173  165  166 1   
   174  165  167 1   
   175  174  175 1   
   176  174  179 1   
   177  175  176 1   
   178  175  177 1   
   179  175  178 1   
   180  181  182 1   
   181  181  183 1   
   182  184  185 1   
   183  184  186 1   
   184  187  188 1   
   185  187  189 1   
@<TRIPOS>SUBSTRUCTURE
     1 MOL         1 TEMP              0 ****  ****    0 ROOT
