@<TRIPOS>MOLECULE
MOL
  186   183     1     0     0
SMALL
resp


@<TRIPOS>ATOM
      1 C1          0.3020   -1.9630    6.2260 c3        1 MOL     -0.249122
      2 C2          0.6950   -2.0400    4.7650 c         1 MOL      0.788290
      3 O1         -0.1470   -2.6720    4.0080 o         1 MOL     -0.611030
      4 H1          1.1430   -2.2770    6.8450 hc        1 MOL      0.054860
      5 H2          0.0310   -0.9370    6.4760 hc        1 MOL      0.054860
      6 H3         -0.5480   -2.6190    6.4100 hc        1 MOL      0.054860
      7 N1          1.8780   -1.5420    4.3520 n         1 MOL     -0.629919
      8 C3          2.4980   -1.6810    3.0080 c3        1 MOL      0.299034
      9 C4          2.6480   -3.1760    2.6430 c         1 MOL      0.493397
     10 O2          2.9000   -3.9660    3.4940 o         1 MOL     -0.568228
     11 C5          3.8710   -1.0110    3.0490 c3        1 MOL     -0.214516
     12 C6          4.5290   -0.7440    1.7010 c         1 MOL      0.730977
     13 O3          3.9110   -1.0560    0.5910 o         1 MOL     -0.634821
     14 O4          5.6550   -0.2200    1.7200 o         1 MOL     -0.634821
     15 H4          2.3690   -0.9320    5.0010 hn        1 MOL      0.291055
     16 H5          1.7770   -1.3070    2.2830 h1        1 MOL     -0.071228
     17 H6          4.5370   -1.5310    3.7450 hc        1 MOL      0.045750
     18 H7          3.7810   -0.0190    3.4920 hc        1 MOL      0.045750
     19 N2          2.3960   -3.6450    1.3480 n         1 MOL     -0.180165
     20 C7          2.3660   -5.0200    0.9070 c3        1 MOL      0.006000
     21 C8          3.4670   -5.1390   -0.1940 c         1 MOL      0.353324
     22 O5          4.1260   -6.1760   -0.2910 o         1 MOL     -0.569596
     23 C9          0.9840   -5.4430    0.3530 c3        1 MOL      0.100573
     24 C10        -0.1270   -5.1880    1.4090 c3        1 MOL      0.110426
     25 C11         1.0070   -6.8760   -0.2130 c3        1 MOL     -0.304954
     26 C12        -1.4930   -5.4900    0.8500 c3        1 MOL     -0.070029
     27 H8          2.1010   -2.9170    0.7050 hn        1 MOL      0.004250
     28 H9          2.5560   -5.7220    1.7310 h1        1 MOL      0.073209
     29 H10         0.7040   -4.8140   -0.4860 hc        1 MOL      0.028342
     30 H11        -0.0800   -4.1570    1.7760 hc        1 MOL     -0.000060
     31 H12         0.0430   -5.7780    2.3170 hc        1 MOL     -0.000060
     32 H13         1.8130   -6.8900   -0.9440 hc        1 MOL      0.065321
     33 H14         1.2700   -7.6060    0.5590 hc        1 MOL      0.065321
     34 H15         0.0660   -7.1870   -0.6620 hc        1 MOL      0.065321
     35 H16        -2.1760   -5.3440    1.6910 hc        1 MOL      0.002948
     36 H17        -1.7240   -4.9390   -0.0650 hc        1 MOL      0.002948
     37 H18        -1.5160   -6.5660    0.6640 hc        1 MOL      0.002948
     38 N3          3.6850   -4.1670   -1.0760 n         1 MOL     -0.100408
     39 C13         4.6640   -4.1940   -2.1430 c3        1 MOL      0.021251
     40 C14         6.0620   -3.6980   -1.7270 c         1 MOL      0.363683
     41 O6          7.0360   -3.9540   -2.4190 o         1 MOL     -0.531595
     42 C15         4.2450   -3.5960   -3.4390 c3        1 MOL     -0.262219
     43 C16         3.4670   -2.2990   -3.4950 c         1 MOL      0.826645
     44 O7          3.6110   -1.5060   -2.5410 o         1 MOL     -0.714300
     45 O8          2.7540   -2.1490   -4.4950 o         1 MOL     -0.714300
     46 H19         3.0640   -3.3630   -1.0550 hn        1 MOL      0.172546
     47 H20         4.7610   -5.2540   -2.3750 h1        1 MOL      0.088873
     48 H21         3.6420   -4.4070   -3.8450 hc        1 MOL      0.059389
     49 H22         5.0990   -3.4820   -4.1130 hc        1 MOL      0.059389
     50 N4          6.1480   -2.9330   -0.6120 n         1 MOL     -0.110659
     51 C17         7.4190   -2.4350   -0.0160 c3        1 MOL     -0.088282
     52 C18         7.9410   -1.1070   -0.5500 c         1 MOL      0.545950
     53 O9          9.1400   -0.9760   -0.8000 o         1 MOL     -0.632233
     54 H23         5.2650   -2.6890   -0.1940 hn        1 MOL      0.074430
     55 H24         8.2030   -3.1510   -0.2640 h1        1 MOL      0.060147
     56 H25         7.3650   -2.4660    1.0660 h1        1 MOL      0.060147
     57 N5          7.0640   -0.1630   -0.8310 n         1 MOL     -0.079163
     58 C19         7.4630    1.1350   -1.4960 c3        1 MOL     -0.106032
     59 C20         7.4390    2.3610   -0.5410 c         1 MOL      0.435746
     60 O10         7.6730    3.4950   -0.8940 o         1 MOL     -0.519899
     61 C21         6.5540    1.3790   -2.6690 c3        1 MOL     -0.061295
     62 C22         5.0690    1.4920   -2.4080 c         1 MOL      0.718249
     63 O11         4.2170    1.3640   -3.3400 o         1 MOL     -0.724364
     64 O12         4.7420    1.6260   -1.2270 o         1 MOL     -0.724364
     65 H26         6.1330   -0.3820   -0.4950 hn        1 MOL      0.040133
     66 H27         8.4480    1.0970   -1.9530 h1        1 MOL      0.125725
     67 H28         6.6890    0.5000   -3.2880 hc        1 MOL      0.025881
     68 H29         6.9220    2.1760   -3.3010 hc        1 MOL      0.025881
     69 N6          7.0970    2.1230    0.7490 n         1 MOL     -0.305746
     70 C23         6.9870    3.1710    1.7860 c3        1 MOL     -0.044179
     71 C24         5.7690    4.1400    1.5820 c         1 MOL      0.484950
     72 O13         5.7520    5.2810    1.9780 o         1 MOL     -0.603169
     73 H30         6.6460    1.2410    0.9490 hn        1 MOL      0.176496
     74 H31         7.8840    3.7930    1.8340 h1        1 MOL      0.062875
     75 H32         6.8490    2.7420    2.7810 h1        1 MOL      0.062875
     76 N7          4.6960    3.7060    0.9440 n         1 MOL     -0.140280
     77 C25         3.3310    4.2700    0.9580 c3        1 MOL     -0.189202
     78 C26         2.1670    3.2150    1.1460 c         1 MOL      0.562419
     79 O14         2.3970    2.1140    0.7180 o         1 MOL     -0.637085
     80 C27         3.0390    5.0100   -0.3610 c3        1 MOL      0.014639
     81 C28         3.7150    6.4090   -0.3680 c3        1 MOL     -0.337300
     82 C29         3.2260    7.2380   -1.5760 c         1 MOL      0.658806
     83 N8          3.1410    8.5300   -1.4290 n         1 MOL     -0.763619
     84 O15         2.7990    6.7630   -2.6680 o         1 MOL     -0.583877
     85 H33         4.7140    2.8480    0.4210 hn        1 MOL      0.250814
     86 H34         3.2750    4.9500    1.8120 h1        1 MOL      0.085764
     87 H35         1.9790    5.1980   -0.5520 hc        1 MOL      0.060242
     88 H36         3.4590    4.4700   -1.1990 hc        1 MOL      0.060242
     89 H37         4.7650    6.1910   -0.5540 hc        1 MOL      0.126940
     90 H38         3.5610    6.9920    0.5460 hc        1 MOL      0.126940
     91 H39         3.4530    8.9990   -0.5970 hn        1 MOL      0.341871
     92 H40         2.8330    9.0740   -2.2240 hn        1 MOL      0.341871
     93 N9          1.0940    3.4510    1.9290 n         1 MOL     -0.399930
     94 C30        -0.1050    2.5660    2.1000 c3        1 MOL      0.159612
     95 C31        -1.2060    3.0550    1.1890 c         1 MOL      0.271881
     96 O16        -1.5330    4.2610    1.2140 o         1 MOL     -0.559686
     97 C32        -0.4080    2.5360    3.6200 c3        1 MOL      0.236180
     98 C33        -1.6540    1.7570    4.0160 c3        1 MOL     -0.335931
     99 C34         0.6910    1.9100    4.4460 c3        1 MOL     -0.335931
    100 H41         0.9490    4.3770    2.3230 hn        1 MOL      0.238484
    101 H42         0.0460    1.5130    1.8670 h1        1 MOL      0.128838
    102 H43        -0.5220    3.5720    3.9360 hc        1 MOL     -0.035494
    103 H44        -1.8230    1.7050    5.0940 hc        1 MOL      0.070691
    104 H45        -2.4820    2.2750    3.5440 hc        1 MOL      0.070691
    105 H46        -1.4600    0.7600    3.6210 hc        1 MOL      0.070691
    106 H47         0.7040    0.8330    4.2630 hc        1 MOL      0.070691
    107 H48         1.6590    2.3100    4.1340 hc        1 MOL      0.070691
    108 H49         0.4390    2.0930    5.4900 hc        1 MOL      0.070691
    109 N10        -1.6450    2.1390    0.3330 n         1 MOL     -0.014659
    110 C35        -2.6700    2.3470   -0.6450 c3        1 MOL      0.146052
    111 C36        -4.0620    2.0620   -0.0230 c         1 MOL      0.345523
    112 O17        -4.1490    1.2490    0.9050 o         1 MOL     -0.334309
    113 C37        -2.4970    1.4090   -1.8340 c3        1 MOL     -0.324897
    114 C38        -3.4690    1.7470   -2.9610 c         1 MOL      0.701995
    115 N11        -3.4590    2.9090   -3.5140 n         1 MOL     -0.756038
    116 O18        -4.3930    0.9780   -3.1980 o         1 MOL     -0.559356
    117 H50        -0.9860    1.3720    0.2550 hn        1 MOL      0.134371
    118 H51        -2.7010    3.4050   -0.9190 h1        1 MOL     -0.004586
    119 H52        -2.5840    0.3770   -1.5080 hc        1 MOL      0.093624
    120 H53        -1.5190    1.6120   -2.2710 hc        1 MOL      0.093624
    121 H54        -2.6500    3.4820   -3.3400 hn        1 MOL      0.356080
    122 H55        -4.0340    3.0600   -4.3270 hn        1 MOL      0.356080
    123 N12        -5.1900    2.6810   -0.4150 n         1 MOL     -0.429769
    124 C39        -6.5530    2.3690    0.0460 c3        1 MOL      0.200169
    125 C40        -6.7740    0.8160    0.0960 c         1 MOL      0.716472
    126 O19        -7.3040    0.2580    1.0800 o         1 MOL     -0.556610
    127 C41        -7.6240    3.0700   -0.7890 c3        1 MOL     -0.132370
    128 C42        -9.0240    2.6140   -0.4970 ca        1 MOL     -0.050005
    129 C43        -9.5480    2.7420    0.8320 ca        1 MOL     -0.136097
    130 C44        -9.7940    1.9870   -1.4600 ca        1 MOL     -0.136097
    131 C45       -10.8020    2.2210    1.1760 ca        1 MOL     -0.268338
    132 C46       -11.0520    1.3980   -1.1520 ca        1 MOL     -0.268338
    133 C47       -11.5690    1.5420    0.2030 ca        1 MOL      0.368837
    134 O20       -12.7740    0.9660    0.4630 oh        1 MOL     -0.552249
    135 H56        -5.0680    3.3990   -1.1180 hn        1 MOL      0.225685
    136 H57        -6.6140    2.7660    1.0600 h1        1 MOL      0.023016
    137 H58        -7.4110    2.9560   -1.8510 hc        1 MOL      0.064705
    138 H59        -7.6500    4.1290   -0.5440 hc        1 MOL      0.064705
    139 H60        -8.8870    3.1310    1.5980 ha        1 MOL      0.125861
    140 H61        -9.4970    2.1910   -2.4770 ha        1 MOL      0.125861
    141 H62       -11.2250    2.3400    2.1660 ha        1 MOL      0.150064
    142 H63       -11.7060    0.9260   -1.8620 ha        1 MOL      0.150064
    143 H64       -13.0380    0.2840   -0.1500 ho        1 MOL      0.398192
    144 N13        -6.2160    0.0440   -0.8370 n         1 MOL     -0.555892
    145 C48        -6.5590   -1.3910   -0.9800 c3        1 MOL      0.007324
    146 C49        -5.6930   -2.1920   -0.0000 c         1 MOL      0.338978
    147 O21        -6.1310   -3.1400    0.6380 o         1 MOL     -0.489209
    148 C50        -6.4870   -1.7580   -2.4610 c3        1 MOL     -0.022857
    149 C51        -6.8290   -3.2760   -2.7100 c3        1 MOL     -0.118629
    150 C52        -6.8020   -3.5580   -4.1940 c         1 MOL      0.661312
    151 O22        -5.7550   -3.2850   -4.7980 o         1 MOL     -0.737254
    152 O23        -7.8880   -4.0080   -4.7070 o         1 MOL     -0.737254
    153 H65        -5.8700    0.5860   -1.6250 hn        1 MOL      0.223248
    154 H66        -7.5240   -1.4890   -0.4890 h1        1 MOL      0.106375
    155 H67        -5.4550   -1.5920   -2.7730 hc        1 MOL      0.066653
    156 H68        -7.2890   -1.3050   -3.0360 hc        1 MOL      0.066653
    157 H69        -7.8030   -3.5560   -2.2840 hc        1 MOL     -0.000510
    158 H70        -6.0610   -3.8670   -2.2090 hc        1 MOL     -0.000510
    159 N14        -4.3910   -1.8310    0.1440 n         1 MOL     -0.195916
    160 C53        -3.4880   -2.2150    1.3210 c3        1 MOL     -0.037125
    161 C54        -4.0970   -1.8260    2.6810 c         1 MOL      0.473712
    162 O24        -3.9520   -2.5540    3.6230 o         1 MOL     -0.577368
    163 C55        -2.1490   -1.4760    1.1920 c3        1 MOL      0.336799
    164 C56        -1.3870   -1.8770   -0.0620 c3        1 MOL     -0.212288
    165 C57         0.0130   -1.1880   -0.1910 c         1 MOL      0.797371
    166 O25         1.0400   -1.8170   -0.6080 o         1 MOL     -0.737787
    167 O26         0.1630    0.0520    0.0270 o         1 MOL     -0.737787
    168 H71        -3.9960   -1.1120   -0.4450 hn        1 MOL      0.179934
    169 H72        -3.2580   -3.2810    1.2350 h1        1 MOL      0.081165
    170 H73        -1.4930   -1.7060    2.0280 hc        1 MOL     -0.084887
    171 H74        -2.3610   -0.4050    1.1460 hc        1 MOL     -0.084887
    172 H75        -1.9170   -1.5570   -0.9540 hc        1 MOL      0.053468
    173 H76        -1.2330   -2.9520   -0.0920 hc        1 MOL      0.053468
    174 N15        -4.7920   -0.7140    2.8000 n         1 MOL     -0.002938
    175 C58        -5.4490   -0.1520    4.0230 c3        1 MOL     -0.311000
    176 H77        -6.3270    0.4240    3.7310 h1        1 MOL      0.108367
    177 H78        -5.7510   -0.9660    4.6800 h1        1 MOL      0.108367
    178 H79        -4.7470    0.4980    4.5470 h1        1 MOL      0.108367
    179 H80        -4.7470   -0.1350    1.9680 hn        1 MOL     -0.026479
    180 Ca1         2.5260    0.2410   -1.1040 Ca        1 MOL      1.722909
    181 O27         1.6010    2.4250   -2.5140 oh        1 MOL     -0.808402
    182 H81         2.2720    2.4290   -3.1900 ho        1 MOL      0.383508
    183 H82         1.2760    3.3210   -2.4910 ho        1 MOL      0.383508
    184 O28         1.0870   -0.2930   -3.2360 oh        1 MOL     -0.808402
    185 H83         1.7180   -0.5790   -3.8920 ho        1 MOL      0.383508
    186 H84         0.2440   -0.3120   -3.6930 ho        1 MOL      0.383508
@<TRIPOS>BOND
     1    1    2 1   
     2    1    4 1   
     3    1    5 1   
     4    1    6 1   
     5    2    3 2   
     6    2    7 1   
     7    7    8 1   
     8    7   15 1   
     9    8    9 1   
    10    8   11 1   
    11    8   16 1   
    12    9   10 2   
    13    9   19 1   
    14   11   12 1   
    15   11   17 1   
    16   11   18 1   
    17   12   13 1   
    18   12   14 1   
    19   19   20 1   
    20   19   27 1   
    21   20   21 1   
    22   20   23 1   
    23   20   28 1   
    24   21   22 2   
    25   21   38 1   
    26   23   24 1   
    27   23   25 1   
    28   23   29 1   
    29   24   26 1   
    30   24   30 1   
    31   24   31 1   
    32   25   32 1   
    33   25   33 1   
    34   25   34 1   
    35   26   35 1   
    36   26   36 1   
    37   26   37 1   
    38   38   39 1   
    39   38   46 1   
    40   39   40 1   
    41   39   42 1   
    42   39   47 1   
    43   40   41 2   
    44   40   50 1   
    45   42   43 1   
    46   42   48 1   
    47   42   49 1   
    48   43   44 1   
    49   43   45 1   
    50   50   51 1   
    51   50   54 1   
    52   51   52 1   
    53   51   55 1   
    54   51   56 1   
    55   52   53 2   
    56   52   57 1   
    57   57   58 1   
    58   57   65 1   
    59   58   59 1   
    60   58   61 1   
    61   58   66 1   
    62   59   60 2   
    63   59   69 1   
    64   61   62 1   
    65   61   67 1   
    66   61   68 1   
    67   62   63 1   
    68   62   64 1   
    69   69   70 1   
    70   69   73 1   
    71   70   71 1   
    72   70   74 1   
    73   70   75 1   
    74   71   72 2   
    75   71   76 1   
    76   76   77 1   
    77   76   85 1   
    78   77   78 1   
    79   77   80 1   
    80   77   86 1   
    81   78   79 2   
    82   78   93 1   
    83   80   81 1   
    84   80   87 1   
    85   80   88 1   
    86   81   82 1   
    87   81   89 1   
    88   81   90 1   
    89   82   83 1   
    90   82   84 2   
    91   83   91 1   
    92   83   92 1   
    93   93   94 1   
    94   93  100 1   
    95   94   95 1   
    96   94   97 1   
    97   94  101 1   
    98   95   96 2   
    99   95  109 1   
   100   97   98 1   
   101   97   99 1   
   102   97  102 1   
   103   98  103 1   
   104   98  104 1   
   105   98  105 1   
   106   99  106 1   
   107   99  107 1   
   108   99  108 1   
   109  109  110 1   
   110  109  117 1   
   111  110  111 1   
   112  110  113 1   
   113  110  118 1   
   114  111  112 2   
   115  111  123 1   
   116  113  114 1   
   117  113  119 1   
   118  113  120 1   
   119  114  115 1   
   120  114  116 2   
   121  115  121 1   
   122  115  122 1   
   123  123  124 1   
   124  123  135 1   
   125  124  125 1   
   126  124  127 1   
   127  124  136 1   
   128  125  126 2   
   129  125  144 1   
   130  127  128 1   
   131  127  137 1   
   132  127  138 1   
   133  128  129 ar  
   134  128  130 ar  
   135  129  131 ar  
   136  129  139 1   
   137  130  132 ar  
   138  130  140 1   
   139  131  133 ar  
   140  131  141 1   
   141  132  133 ar  
   142  132  142 1   
   143  133  134 1   
   144  134  143 1   
   145  144  145 1   
   146  144  153 1   
   147  145  146 1   
   148  145  148 1   
   149  145  154 1   
   150  146  147 2   
   151  146  159 1   
   152  148  149 1   
   153  148  155 1   
   154  148  156 1   
   155  149  150 1   
   156  149  157 1   
   157  149  158 1   
   158  150  151 1   
   159  150  152 1   
   160  159  160 1   
   161  159  168 1   
   162  160  161 1   
   163  160  163 1   
   164  160  169 1   
   165  161  162 2   
   166  161  174 1   
   167  163  164 1   
   168  163  170 1   
   169  163  171 1   
   170  164  165 1   
   171  164  172 1   
   172  164  173 1   
   173  165  166 1   
   174  165  167 1   
   175  174  175 1   
   176  174  179 1   
   177  175  176 1   
   178  175  177 1   
   179  175  178 1   
   180  181  182 1   
   181  181  183 1   
   182  184  185 1   
   183  184  186 1   
@<TRIPOS>SUBSTRUCTURE
     1 MOL         1 TEMP              0 ****  ****    0 ROOT
