@<TRIPOS>MOLECULE
MOL
  189   185     1     0     0
SMALL
resp


@<TRIPOS>ATOM
      1 C1         -0.1970   -2.4790    6.4380 c3        1 MOL     -0.356434
      2 C2          0.6140   -2.2890    5.1410 c         1 MOL      0.719928
      3 O1          0.8330   -1.1190    4.7130 o         1 MOL     -0.642031
      4 H1         -1.1380   -2.9800    6.2080 hc        1 MOL      0.088297
      5 H2          0.3740   -3.0860    7.1400 hc        1 MOL      0.088297
      6 H3         -0.4050   -1.5060    6.8830 hc        1 MOL      0.088297
      7 N1          1.0080   -3.3520    4.5520 n         1 MOL     -0.540253
      8 C3          1.7610   -3.3030    3.2770 c3        1 MOL      0.150961
      9 C4          1.5630   -4.6000    2.4690 c         1 MOL      0.501561
     10 O2          1.5700   -5.7180    3.0580 o         1 MOL     -0.595930
     11 C5          3.2340   -2.9150    3.4820 c3        1 MOL     -0.156520
     12 C6          4.0160   -2.7890    2.1950 c         1 MOL      0.650467
     13 O3          5.2480   -2.7540    2.3770 o         1 MOL     -0.664533
     14 O4          3.5560   -2.4490    1.0400 o         1 MOL     -0.664533
     15 H4          0.8010   -4.2800    4.8740 hn        1 MOL      0.298638
     16 H5          1.2690   -2.5250    2.6890 h1        1 MOL      0.030538
     17 H6          3.7620   -3.6280    4.1130 hc        1 MOL      0.047583
     18 H7          3.3040   -1.9650    4.0140 hc        1 MOL      0.047583
     19 N2          1.4100   -4.4960    1.1320 n         1 MOL     -0.177461
     20 C7          1.4540   -5.5190    0.1090 c3        1 MOL     -0.218882
     21 C8          2.7010   -5.4430   -0.8310 c         1 MOL      0.702056
     22 O5          3.1620   -6.5030   -1.3150 o         1 MOL     -0.619983
     23 C9          0.1460   -5.5020   -0.7850 c3        1 MOL      0.317809
     24 C10        -1.0930   -5.6380    0.1370 c3        1 MOL     -0.243243
     25 C11        -0.0070   -6.6120   -1.8230 c3        1 MOL     -0.329568
     26 C12        -2.2870   -4.8950   -0.4760 c3        1 MOL     -0.114903
     27 H8          1.3730   -3.5270    0.8310 hn        1 MOL      0.140427
     28 H9          1.5420   -6.4760    0.6210 h1        1 MOL      0.091272
     29 H10         0.1150   -4.6020   -1.3920 hc        1 MOL      0.028401
     30 H11        -0.8430   -5.1050    1.0490 hc        1 MOL      0.049377
     31 H12        -1.3470   -6.6920    0.3030 hc        1 MOL      0.049377
     32 H13         0.5910   -6.5100   -2.7330 hc        1 MOL      0.073244
     33 H14         0.3910   -7.4930   -1.3330 hc        1 MOL      0.073244
     34 H15        -1.0200   -6.8550   -2.1330 hc        1 MOL      0.073244
     35 H16        -2.5500   -5.3440   -1.4420 hc        1 MOL      0.062936
     36 H17        -3.1310   -5.0690    0.1900 hc        1 MOL      0.062936
     37 H18        -2.0890   -3.8340   -0.5840 hc        1 MOL      0.062936
     38 N3          3.3150   -4.3110   -1.0950 n         1 MOL     -0.613492
     39 C13         4.2170   -4.0360   -2.3220 c3        1 MOL     -0.019237
     40 C14         5.6040   -3.4080   -2.0790 c         1 MOL      0.491200
     41 O6          6.4580   -3.4710   -2.9360 o         1 MOL     -0.521180
     42 C15         3.3170   -3.3250   -3.3720 c3        1 MOL     -0.148566
     43 C16         2.8330   -1.9000   -2.9700 c         1 MOL      0.758552
     44 O7          2.9570   -1.4810   -1.8140 o         1 MOL     -0.727059
     45 O8          2.1560   -1.2620   -3.7390 o         1 MOL     -0.727059
     46 H19         3.0440   -3.4980   -0.5700 hn        1 MOL      0.363842
     47 H20         4.3790   -4.9850   -2.8330 h1        1 MOL      0.109066
     48 H21         2.4910   -3.9910   -3.6220 hc        1 MOL      0.048363
     49 H22         4.0120   -3.2390   -4.2110 hc        1 MOL      0.048363
     50 N4          5.8480   -2.8960   -0.8400 n         1 MOL     -0.142580
     51 C17         7.1190   -2.4020   -0.3410 c3        1 MOL     -0.190771
     52 C18         7.6910   -1.1610   -1.0520 c         1 MOL      0.592275
     53 O9          8.7690   -1.1400   -1.5850 o         1 MOL     -0.591625
     54 H23         5.0400   -2.6170   -0.3060 hn        1 MOL      0.124048
     55 H24         7.8810   -3.1510   -0.5300 h1        1 MOL      0.086189
     56 H25         7.0920   -2.1800    0.7250 h1        1 MOL      0.086189
     57 N5          7.0000   -0.0020   -1.0460 n         1 MOL     -0.422297
     58 C19         7.1800    1.2930   -1.7680 c3        1 MOL      0.269216
     59 C20         7.3190    2.5170   -0.9130 c         1 MOL      0.345694
     60 O10         7.7050    3.5410   -1.5210 o         1 MOL     -0.517036
     61 C21         6.0380    1.6240   -2.7860 c3        1 MOL     -0.465497
     62 C22         4.6340    1.7850   -2.2300 c         1 MOL      0.834376
     63 O11         4.4070    1.4550   -1.0520 o         1 MOL     -0.714919
     64 O12         3.7930    2.3100   -3.0160 o         1 MOL     -0.714919
     65 H26         6.1290   -0.1080   -0.5360 hn        1 MOL      0.148431
     66 H27         8.1220    1.1960   -2.3040 h1        1 MOL      0.064286
     67 H28         6.0280    0.8160   -3.5160 hc        1 MOL      0.121346
     68 H29         6.1160    2.5970   -3.2650 hc        1 MOL      0.121346
     69 N6          7.0220    2.4630    0.3980 n         1 MOL     -0.347692
     70 C23         7.0040    3.6230    1.2370 c3        1 MOL     -0.010482
     71 C24         5.7060    4.4300    1.3250 c         1 MOL      0.479114
     72 O13         5.5940    5.3140    2.1530 o         1 MOL     -0.579467
     73 H30         6.6460    1.6470    0.8740 hn        1 MOL      0.238142
     74 H31         7.8540    4.2340    0.9420 h1        1 MOL      0.060474
     75 H32         7.2470    3.3150    2.2590 h1        1 MOL      0.060474
     76 N7          4.6560    3.9550    0.5920 n         1 MOL     -0.348682
     77 C25         3.3270    4.5760    0.6850 c3        1 MOL     -0.004258
     78 C26         2.2370    3.5850    0.9620 c         1 MOL      0.660490
     79 O14         2.3760    2.4000    0.6870 o         1 MOL     -0.639756
     80 C27         2.9810    5.3460   -0.5790 c3        1 MOL      0.009494
     81 C28         3.7480    6.6740   -0.7150 c3        1 MOL     -0.291887
     82 C29         3.2050    7.6760   -1.7400 c         1 MOL      0.709919
     83 N8          3.5660    7.5370   -2.9690 n         1 MOL     -0.790969
     84 O15         2.6390    8.6810   -1.4070 o         1 MOL     -0.587420
     85 H33         4.8570    3.0560    0.1650 hn        1 MOL      0.339635
     86 H34         3.2270    5.3440    1.4520 h1        1 MOL      0.079114
     87 H35         1.9150    5.5920   -0.5400 hc        1 MOL      0.027766
     88 H36         3.0500    4.7160   -1.4630 hc        1 MOL      0.027766
     89 H37         4.8170    6.4820   -0.8650 hc        1 MOL      0.094118
     90 H38         3.4960    7.1310    0.2430 hc        1 MOL      0.094118
     91 H39         3.7150    6.5730   -3.2520 hn        1 MOL      0.356356
     92 H40         3.3830    8.2140   -3.6990 hn        1 MOL      0.356356
     93 N9          1.1110    4.0760    1.4800 n         1 MOL     -0.736966
     94 C30        -0.1150    3.3730    1.6050 c3        1 MOL      0.181153
     95 C31        -1.0310    3.7110    0.4600 c         1 MOL      0.483299
     96 O16        -1.0540    4.9040    0.1290 o         1 MOL     -0.600019
     97 C32        -0.7480    3.4860    3.0270 c3        1 MOL      0.042910
     98 C33        -2.2420    3.2930    3.0680 c3        1 MOL     -0.176731
     99 C34        -0.1900    2.3720    3.9320 c3        1 MOL     -0.176731
    100 H41         1.0030    5.0790    1.4580 hn        1 MOL      0.344111
    101 H42         0.1280    2.3100    1.5970 h1        1 MOL      0.273935
    102 H43        -0.5340    4.4600    3.4670 hc        1 MOL      0.013555
    103 H44        -2.5670    3.1580    4.0960 hc        1 MOL      0.031136
    104 H45        -2.8050    4.1420    2.6730 hc        1 MOL      0.031136
    105 H46        -2.5250    2.4190    2.4630 hc        1 MOL      0.031136
    106 H47        -0.4750    2.6160    4.9510 hc        1 MOL      0.031136
    107 H48        -0.4480    1.3620    3.5970 hc        1 MOL      0.031136
    108 H49         0.8960    2.4140    3.9510 hc        1 MOL      0.031136
    109 N10        -1.5580    2.7000   -0.2090 n         1 MOL     -0.116671
    110 C35        -2.5750    2.7850   -1.2610 c3        1 MOL      0.112008
    111 C36        -3.8850    2.2810   -0.6700 c         1 MOL      0.142551
    112 O17        -3.9290    1.7380    0.4460 o         1 MOL     -0.124676
    113 C37        -2.2480    1.9270   -2.5090 c3        1 MOL     -0.139119
    114 C38        -2.5020    0.4340   -2.4470 c         1 MOL      0.560089
    115 N11        -1.4920   -0.3490   -2.2060 n         1 MOL     -0.611574
    116 O18        -3.5840    0.0100   -2.8050 o         1 MOL     -0.536679
    117 H50        -1.3080    1.7660    0.0980 hn        1 MOL      0.001366
    118 H51        -2.7070    3.7900   -1.6430 h1        1 MOL      0.060721
    119 H52        -1.1810    2.1480   -2.6250 hc        1 MOL      0.062719
    120 H53        -2.6660    2.2500   -3.4520 hc        1 MOL      0.062719
    121 H54        -0.5780    0.0210   -1.9850 hn        1 MOL      0.365140
    122 H55        -1.6970   -1.3380   -2.1330 hn        1 MOL      0.365140
    123 N12        -4.9980    2.4590   -1.3920 n         1 MOL     -0.409999
    124 C39        -6.3650    2.1580   -0.9130 c3        1 MOL      0.185086
    125 C40        -6.5440    0.6930   -0.4080 c         1 MOL      0.642281
    126 O19        -7.2010    0.4900    0.6430 o         1 MOL     -0.571814
    127 C41        -7.4740    2.4810   -1.9420 c3        1 MOL     -0.219007
    128 C42        -8.9480    2.2420   -1.4630 ca        1 MOL     -0.013447
    129 C43        -9.4470    3.0490   -0.4270 ca        1 MOL     -0.125104
    130 C44        -9.7200    1.1320   -1.9500 ca        1 MOL     -0.125104
    131 C45       -10.7870    2.8080    0.0130 ca        1 MOL     -0.279387
    132 C46       -10.9910    0.8920   -1.4190 ca        1 MOL     -0.279387
    133 C47       -11.6110    1.7450   -0.4870 ca        1 MOL      0.386977
    134 O20       -12.9070    1.6260   -0.1350 oh        1 MOL     -0.541842
    135 H56        -4.9710    2.7910   -2.3420 hn        1 MOL      0.271382
    136 H57        -6.6980    2.7100   -0.0260 h1        1 MOL      0.021347
    137 H58        -7.2330    1.8850   -2.8170 hc        1 MOL      0.079730
    138 H59        -7.4100    3.5480   -2.1740 hc        1 MOL      0.079730
    139 H60        -8.7880    3.8220   -0.0660 ha        1 MOL      0.140830
    140 H61        -9.3260    0.4910   -2.7270 ha        1 MOL      0.140830
    141 H62       -11.1720    3.4490    0.7930 ha        1 MOL      0.136027
    142 H63       -11.4830   -0.0380   -1.6630 ha        1 MOL      0.136027
    143 H64       -13.2870    0.7830   -0.3930 ho        1 MOL      0.390277
    144 N13        -6.0290   -0.3010   -1.1240 n         1 MOL     -0.378802
    145 C48        -5.8880   -1.7300   -0.6690 c3        1 MOL     -0.196885
    146 C49        -5.1850   -1.9760    0.7330 c         1 MOL      0.403840
    147 O21        -5.2510   -3.0000    1.3410 o         1 MOL     -0.531183
    148 C50        -5.2650   -2.7350   -1.7020 c3        1 MOL      0.517912
    149 C51        -5.8350   -2.7390   -3.1650 c3        1 MOL     -0.508652
    150 C52        -5.1940   -3.8110   -4.0810 c         1 MOL      0.857581
    151 O22        -4.5370   -4.7560   -3.6260 o         1 MOL     -0.771772
    152 O23        -5.3390   -3.7610   -5.3560 o         1 MOL     -0.771772
    153 H65        -5.4560    0.0140   -1.9030 hn        1 MOL      0.226438
    154 H66        -6.9080   -2.0250   -0.4340 h1        1 MOL      0.094945
    155 H67        -5.3590   -3.7100   -1.2410 hc        1 MOL     -0.098360
    156 H68        -4.2020   -2.4970   -1.8070 hc        1 MOL     -0.098360
    157 H69        -5.6660   -1.7230   -3.5170 hc        1 MOL      0.062558
    158 H70        -6.8850   -3.0110   -3.1480 hc        1 MOL      0.062558
    159 N14        -4.3890   -1.0250    1.1180 n         1 MOL     -0.081360
    160 C53        -3.6060   -1.1480    2.3740 c3        1 MOL     -0.072432
    161 C54        -4.2510   -0.1920    3.4680 c         1 MOL      0.428019
    162 O24        -4.3920   -0.6050    4.6520 o         1 MOL     -0.553391
    163 C55        -2.1260   -0.7650    2.1330 c3        1 MOL     -0.057199
    164 C56        -1.5690   -1.6430    1.0040 c3        1 MOL     -0.000407
    165 C57        -0.1840   -1.0810    0.6380 c         1 MOL      0.768128
    166 O25         0.7680   -1.8710    0.5700 o         1 MOL     -0.798670
    167 O26         0.0400    0.1170    0.4350 o         1 MOL     -0.798670
    168 H71        -4.3190   -0.2230    0.5070 hn        1 MOL      0.055660
    169 H72        -3.6070   -2.1950    2.6850 h1        1 MOL      0.118041
    170 H73        -1.5600   -0.9020    3.0560 hc        1 MOL      0.048896
    171 H74        -2.0460    0.2660    1.8000 hc        1 MOL      0.048896
    172 H75        -2.2200   -1.5140    0.1340 hc        1 MOL     -0.004618
    173 H76        -1.5180   -2.6760    1.3480 hc        1 MOL     -0.004618
    174 N15        -4.8280    0.9890    3.0430 n         1 MOL     -0.004912
    175 C58        -5.5580    1.8590    3.9140 c3        1 MOL     -0.357065
    176 H77        -6.6050    1.5530    3.9380 h1        1 MOL      0.112375
    177 H78        -5.1410    1.8020    4.9190 h1        1 MOL      0.112375
    178 H79        -5.4880    2.8840    3.5480 h1        1 MOL      0.112375
    179 H80        -4.7870    1.2240    2.0600 hn        1 MOL     -0.000138
    180 Ca1         2.6070   -0.1590    0.2140 Ca        1 MOL      1.805515
    181 O27         2.4400    0.2900    2.8100 oh        1 MOL     -0.898318
    182 H81         2.8750    0.8380    3.4650 ho        1 MOL      0.433201
    183 H82         1.6420   -0.0130    3.2350 ho        1 MOL      0.433201
    184 O28         1.3500    0.9740   -2.2650 oh        1 MOL     -0.898318
    185 H83         1.5970    0.2400   -2.8370 ho        1 MOL      0.433201
    186 H84         2.0280    1.6310   -2.4190 ho        1 MOL      0.433201
    187 O29         5.0980   -0.0740    1.2680 oh        1 MOL     -0.898318
    188 H85         5.2700   -0.9920    1.5080 ho        1 MOL      0.433201
    189 H86         5.3170    0.4120    2.0620 ho        1 MOL      0.433201
@<TRIPOS>BOND
     1    1    2 1   
     2    1    4 1   
     3    1    5 1   
     4    1    6 1   
     5    2    3 2   
     6    2    7 1   
     7    7    8 1   
     8    7   15 1   
     9    8    9 1   
    10    8   11 1   
    11    8   16 1   
    12    9   10 2   
    13    9   19 1   
    14   11   12 1   
    15   11   17 1   
    16   11   18 1   
    17   12   13 1   
    18   12   14 1   
    19   19   20 1   
    20   19   27 1   
    21   20   21 1   
    22   20   23 1   
    23   20   28 1   
    24   21   22 2   
    25   21   38 1   
    26   23   24 1   
    27   23   25 1   
    28   23   29 1   
    29   24   26 1   
    30   24   30 1   
    31   24   31 1   
    32   25   32 1   
    33   25   33 1   
    34   25   34 1   
    35   26   35 1   
    36   26   36 1   
    37   26   37 1   
    38   38   39 1   
    39   38   46 1   
    40   39   40 1   
    41   39   42 1   
    42   39   47 1   
    43   40   41 2   
    44   40   50 1   
    45   42   43 1   
    46   42   48 1   
    47   42   49 1   
    48   43   44 1   
    49   43   45 1   
    50   50   51 1   
    51   50   54 1   
    52   51   52 1   
    53   51   55 1   
    54   51   56 1   
    55   52   53 2   
    56   52   57 1   
    57   57   58 1   
    58   57   65 1   
    59   58   59 1   
    60   58   61 1   
    61   58   66 1   
    62   59   60 2   
    63   59   69 1   
    64   61   62 1   
    65   61   67 1   
    66   61   68 1   
    67   62   63 1   
    68   62   64 1   
    69   69   70 1   
    70   69   73 1   
    71   70   71 1   
    72   70   74 1   
    73   70   75 1   
    74   71   72 2   
    75   71   76 1   
    76   76   77 1   
    77   76   85 1   
    78   77   78 1   
    79   77   80 1   
    80   77   86 1   
    81   78   79 2   
    82   78   93 1   
    83   80   81 1   
    84   80   87 1   
    85   80   88 1   
    86   81   82 1   
    87   81   89 1   
    88   81   90 1   
    89   82   83 1   
    90   82   84 2   
    91   83   91 1   
    92   83   92 1   
    93   93   94 1   
    94   93  100 1   
    95   94   95 1   
    96   94   97 1   
    97   94  101 1   
    98   95   96 2   
    99   95  109 1   
   100   97   98 1   
   101   97   99 1   
   102   97  102 1   
   103   98  103 1   
   104   98  104 1   
   105   98  105 1   
   106   99  106 1   
   107   99  107 1   
   108   99  108 1   
   109  109  110 1   
   110  109  117 1   
   111  110  111 1   
   112  110  113 1   
   113  110  118 1   
   114  111  112 2   
   115  111  123 1   
   116  113  114 1   
   117  113  119 1   
   118  113  120 1   
   119  114  115 1   
   120  114  116 2   
   121  115  121 1   
   122  115  122 1   
   123  123  124 1   
   124  123  135 1   
   125  124  125 1   
   126  124  127 1   
   127  124  136 1   
   128  125  126 2   
   129  125  144 1   
   130  127  128 1   
   131  127  137 1   
   132  127  138 1   
   133  128  129 ar  
   134  128  130 ar  
   135  129  131 ar  
   136  129  139 1   
   137  130  132 ar  
   138  130  140 1   
   139  131  133 ar  
   140  131  141 1   
   141  132  133 ar  
   142  132  142 1   
   143  133  134 1   
   144  134  143 1   
   145  144  145 1   
   146  144  153 1   
   147  145  146 1   
   148  145  148 1   
   149  145  154 1   
   150  146  147 2   
   151  146  159 1   
   152  148  149 1   
   153  148  155 1   
   154  148  156 1   
   155  149  150 1   
   156  149  157 1   
   157  149  158 1   
   158  150  151 1   
   159  150  152 1   
   160  159  160 1   
   161  159  168 1   
   162  160  161 1   
   163  160  163 1   
   164  160  169 1   
   165  161  162 2   
   166  161  174 1   
   167  163  164 1   
   168  163  170 1   
   169  163  171 1   
   170  164  165 1   
   171  164  172 1   
   172  164  173 1   
   173  165  166 1   
   174  165  167 1   
   175  174  175 1   
   176  174  179 1   
   177  175  176 1   
   178  175  177 1   
   179  175  178 1   
   180  181  182 1   
   181  181  183 1   
   182  184  185 1   
   183  184  186 1   
   184  187  188 1   
   185  187  189 1   
@<TRIPOS>SUBSTRUCTURE
     1 MOL         1 TEMP              0 ****  ****    0 ROOT
