@<TRIPOS>MOLECULE
MOL
  172   171     1     0     0
SMALL
resp


@<TRIPOS>ATOM
      1 C1          0.0730   -4.1440    5.2700 c3        1 MOL     -0.513759
      2 C2          0.7990   -4.1150    3.9580 c         1 MOL      0.838099
      3 O1          0.2060   -4.0890    2.9330 o         1 MOL     -0.604814
      4 H1         -0.0990   -3.1230    5.6120 hc        1 MOL      0.126168
      5 H2         -0.8840   -4.6520    5.1460 hc        1 MOL      0.126168
      6 H3          0.6750   -4.6770    6.0070 hc        1 MOL      0.126168
      7 N1          2.1600   -3.9250    3.8710 n         1 MOL     -0.786385
      8 C3          2.8720   -3.6330    2.7210 c3        1 MOL      0.428664
      9 C4          3.0520   -4.7240    1.6890 c         1 MOL      0.478367
     10 O2          3.7560   -5.7000    1.9100 o         1 MOL     -0.605467
     11 C5          4.1480   -2.8290    2.9750 c3        1 MOL     -0.263260
     12 C6          4.4990   -1.7470    1.9700 c         1 MOL      0.711637
     13 O3          3.8770   -1.6600    0.8960 o         1 MOL     -0.703413
     14 O4          5.3910   -0.8810    2.2590 o         1 MOL     -0.703413
     15 H4          2.6180   -3.9430    4.7770 hn        1 MOL      0.314844
     16 H5          2.2750   -2.8930    2.2040 h1        1 MOL      0.044574
     17 H6          4.8970   -3.6150    2.9900 hc        1 MOL      0.045801
     18 H7          4.0610   -2.3550    3.9550 hc        1 MOL      0.045801
     19 N2          2.5120   -4.4790    0.4910 n         1 MOL     -0.330574
     20 C7          2.4100   -5.3580   -0.6510 c3        1 MOL      0.104604
     21 C8          3.3320   -4.9050   -1.8260 c         1 MOL      0.515043
     22 O5          3.6190   -5.7160   -2.6890 o         1 MOL     -0.591068
     23 C9          0.9460   -5.5020   -1.0610 c3        1 MOL     -0.188016
     24 H8          1.9960   -3.6150    0.3640 hn        1 MOL      0.256981
     25 H9          2.7220   -6.3540   -0.3500 h1        1 MOL      0.052322
     26 H10         0.7070   -4.5550   -1.5480 hc        1 MOL      0.054526
     27 H11         0.7840   -6.3740   -1.6970 hc        1 MOL      0.054526
     28 H12         0.3170   -5.7000   -0.1850 hc        1 MOL      0.054526
     29 N3          3.9660   -3.7450   -1.7320 n         1 MOL     -0.285314
     30 C10         4.9210   -3.2790   -2.7360 c3        1 MOL     -0.027849
     31 C11         6.1630   -2.5600   -2.2700 c         1 MOL      0.320731
     32 O6          6.9520   -2.0650   -3.0580 o         1 MOL     -0.504176
     33 C12         4.1910   -2.3830   -3.7280 c3        1 MOL     -0.076118
     34 C13         3.4990   -1.1460   -3.2040 c         1 MOL      0.674556
     35 O7          3.7280   -0.7530   -2.0210 o         1 MOL     -0.704365
     36 O8          2.7920   -0.3830   -3.9590 o         1 MOL     -0.704365
     37 H13         3.7400   -3.1290   -0.9560 hn        1 MOL      0.133060
     38 H14         5.2000   -4.1910   -3.2490 h1        1 MOL      0.104627
     39 H15         3.4790   -2.9000   -4.3580 hc        1 MOL      0.032158
     40 H16         4.9360   -1.9650   -4.4010 hc        1 MOL      0.032158
     41 N4          6.1390   -2.0810   -1.0080 n         1 MOL     -0.072101
     42 C14         7.1340   -1.2190   -0.4430 c3        1 MOL     -0.425101
     43 C15         7.0420    0.2300   -0.7860 c         1 MOL      0.736255
     44 O9          8.0240    0.9280   -0.5580 o         1 MOL     -0.634405
     45 H17         5.4880   -2.5910   -0.4230 hn        1 MOL      0.176997
     46 H18         8.1040   -1.6180   -0.7280 h1        1 MOL      0.156987
     47 H19         7.0170   -1.2440    0.6410 h1        1 MOL      0.156987
     48 N5          6.0160    0.7550   -1.5200 n         1 MOL     -0.609966
     49 C16         6.0060    2.1220   -2.0250 c3        1 MOL      0.342365
     50 C17         5.9980    3.2660   -1.0820 c         1 MOL      0.308664
     51 O10         6.2840    4.4050   -1.5870 o         1 MOL     -0.552742
     52 C18         4.9220    2.3130   -3.0860 c3        1 MOL     -0.455611
     53 C19         3.5560    2.4660   -2.5090 c         1 MOL      0.773860
     54 N6          2.6210    3.0360   -3.2860 n         1 MOL     -0.629525
     55 O11         3.2890    2.1110   -1.3820 o         1 MOL     -0.752088
     56 H20         5.3290    0.1140   -1.9090 hn        1 MOL      0.403862
     57 H21         6.9670    2.2720   -2.5120 h1        1 MOL      0.047349
     58 H22         4.8500    1.5280   -3.8370 hc        1 MOL      0.110675
     59 H23         5.1180    3.2620   -3.6080 hc        1 MOL      0.110675
     60 H24         2.8610    3.2460   -4.2520 hn        1 MOL      0.316211
     61 H25         1.6610    2.8950   -3.0210 hn        1 MOL      0.316211
     62 N7          5.7620    3.0840    0.2060 n         1 MOL     -0.170760
     63 C20         5.8070    4.2380    1.1730 c3        1 MOL     -0.187198
     64 C21         4.4510    4.7640    1.5240 c         1 MOL      0.524490
     65 O12         4.4010    5.7330    2.2930 o         1 MOL     -0.601454
     66 H26         5.6980    2.1330    0.5260 hn        1 MOL      0.284440
     67 H27         6.3380    5.1210    0.7990 h1        1 MOL      0.104444
     68 H28         6.2780    3.8990    2.0910 h1        1 MOL      0.104444
     69 N8          3.3870    4.1610    1.0020 n         1 MOL     -0.127349
     70 C22         2.0080    4.5340    1.3080 c3        1 MOL     -0.271003
     71 C23         1.0980    3.2950    1.5870 c         1 MOL      0.735336
     72 O13         1.3790    2.1960    1.0970 o         1 MOL     -0.634263
     73 C24         1.3780    5.3790    0.1780 c3        1 MOL      0.463151
     74 C25         1.8870    6.8280    0.3350 c3        1 MOL     -0.518345
     75 O14         1.5370    4.9090   -1.1520 oh        1 MOL     -0.633734
     76 H29         3.5250    3.5050    0.2490 hn        1 MOL      0.290722
     77 H30         2.0830    5.1940    2.1780 h1        1 MOL      0.095769
     78 H31         0.3050    5.3760    0.4250 h1        1 MOL     -0.008418
     79 H32         0.9070    4.2430   -1.4310 ho        1 MOL      0.384995
     80 H33         1.2190    7.3700   -0.3370 hc        1 MOL      0.130612
     81 H34         1.7520    7.2530    1.3320 hc        1 MOL      0.130612
     82 H35         2.9240    6.9690    0.0410 hc        1 MOL      0.130612
     83 N9          0.1450    3.5760    2.5000 n         1 MOL     -0.815158
     84 C26        -1.0530    2.6850    2.4980 c3        1 MOL      0.260196
     85 C27        -1.9170    2.9690    1.2950 c         1 MOL      0.396492
     86 O15        -2.5250    4.0190    1.2140 o         1 MOL     -0.590908
     87 C28        -1.9160    2.4290    3.8360 c3        1 MOL      0.082884
     88 C29        -0.8900    2.1610    4.9360 c3        1 MOL      0.065530
     89 C30        -2.9160    1.2590    3.6920 c3        1 MOL     -0.329138
     90 C31        -1.5190    1.9380    6.3610 c3        1 MOL     -0.254210
     91 H36         0.0330    4.4460    2.9980 hn        1 MOL      0.407026
     92 H37        -0.7450    1.6640    2.2430 h1        1 MOL      0.036100
     93 H38        -2.2930    3.4330    3.9870 hc        1 MOL     -0.014049
     94 H39        -0.2910    3.0750    5.0040 hc        1 MOL      0.020065
     95 H40        -0.3040    1.2670    4.7230 hc        1 MOL      0.020065
     96 H41        -3.5080    1.0470    4.5810 hc        1 MOL      0.082663
     97 H42        -3.6980    1.4590    2.9580 hc        1 MOL      0.082663
     98 H43        -2.4420    0.3050    3.4590 hc        1 MOL      0.082663
     99 H44        -2.2450    2.7240    6.5870 hc        1 MOL      0.054730
    100 H45        -1.8890    0.9090    6.3940 hc        1 MOL      0.054730
    101 H46        -0.6950    2.0890    7.0500 hc        1 MOL      0.054730
    102 N10        -1.9050    2.1020    0.3500 n         1 MOL     -0.103107
    103 C32        -2.7470    2.1900   -0.8510 c3        1 MOL     -0.015053
    104 C33        -4.1310    1.5030   -0.6140 c         1 MOL      0.450123
    105 O16        -4.3060    0.7240    0.3120 o         1 MOL     -0.344358
    106 C34        -2.1110    1.4090   -2.0140 c3        1 MOL     -0.480065
    107 C35        -0.6220    1.6470   -2.0600 c         1 MOL      0.898743
    108 O17         0.1920    0.7620   -1.6700 o         1 MOL     -0.709361
    109 O18        -0.1330    2.7040   -2.5330 o         1 MOL     -0.709361
    110 H47        -1.2890    1.3090    0.4230 hn        1 MOL      0.160029
    111 H48        -2.9810    3.1810   -1.2250 h1        1 MOL      0.091368
    112 H49        -2.5960    1.4910   -2.9780 hc        1 MOL      0.129428
    113 H50        -2.3070    0.3560   -1.7630 hc        1 MOL      0.129428
    114 N11        -5.1710    1.7300   -1.4300 n         1 MOL     -0.617862
    115 C36        -6.5350    1.2750   -1.1760 c3        1 MOL      0.361184
    116 C37        -6.6350   -0.2740   -1.2040 c         1 MOL      0.327821
    117 O19        -7.2430   -0.7950   -0.2830 o         1 MOL     -0.503347
    118 C38        -7.4670    1.9220   -2.2050 c3        1 MOL     -0.192551
    119 C39        -8.9400    1.6520   -1.8340 ca        1 MOL      0.034262
    120 C40        -9.6080    2.2780   -0.7610 ca        1 MOL     -0.133238
    121 C41        -9.5810    0.6880   -2.6230 ca        1 MOL     -0.133238
    122 C42       -10.8710    1.8910   -0.4440 ca        1 MOL     -0.117872
    123 C43       -10.9480    0.3900   -2.3700 ca        1 MOL     -0.117872
    124 C44       -11.5630    0.9280   -1.2530 ca        1 MOL     -0.090086
    125 H51        -4.9990    2.3780   -2.1870 hn        1 MOL      0.330450
    126 H52        -6.7710    1.6800   -0.1940 h1        1 MOL      0.070422
    127 H53        -7.2070    1.6840   -3.2340 hc        1 MOL      0.057397
    128 H54        -7.3140    3.0000   -2.0910 hc        1 MOL      0.057397
    129 H55        -9.1490    3.0720   -0.2030 ha        1 MOL      0.112724
    130 H56        -9.0770    0.2400   -3.4630 ha        1 MOL      0.112724
    131 H57       -11.3940    2.3180    0.4060 ha        1 MOL      0.109495
    132 H58       -11.5040   -0.2130   -3.0650 ha        1 MOL      0.109495
    133 H59       -12.6090    0.6970   -1.0670 ha        1 MOL      0.090497
    134 N12        -6.0070   -1.0830   -2.1200 n         1 MOL     -0.119028
    135 C45        -5.8350   -2.5350   -2.0000 c3        1 MOL     -0.003047
    136 C46        -5.0040   -2.9940   -0.8080 c         1 MOL      0.592154
    137 O20        -4.9620   -4.1880   -0.6570 o         1 MOL     -0.545740
    138 C47        -5.2220   -3.0090   -3.3630 c3        1 MOL     -0.237645
    139 C48        -4.6640   -1.7810   -4.0120 c3        1 MOL      0.037762
    140 C49        -5.4950   -0.6020   -3.4380 c3        1 MOL      0.130976
    141 H60        -6.8560   -2.8950   -1.8420 h1        1 MOL      0.068102
    142 H61        -4.4720   -3.7650   -3.1130 hc        1 MOL      0.088048
    143 H62        -6.0650   -3.3340   -3.9640 hc        1 MOL      0.088048
    144 H63        -3.6380   -1.5540   -3.7210 hc        1 MOL      0.012283
    145 H64        -4.7250   -1.6180   -5.0940 hc        1 MOL      0.012283
    146 H65        -4.9870    0.3560   -3.3610 h1        1 MOL     -0.013943
    147 H66        -6.3250   -0.4430   -4.1190 h1        1 MOL     -0.013943
    148 N13        -4.5410   -2.0880    0.1430 n         1 MOL     -0.350452
    149 C50        -4.0030   -2.5570    1.4040 c3        1 MOL     -0.087519
    150 C51        -4.9100   -2.0570    2.6030 c         1 MOL      0.411967
    151 O21        -4.8880   -2.6930    3.6150 o         1 MOL     -0.525207
    152 C52        -2.6010   -1.9670    1.6000 c3        1 MOL     -0.141768
    153 C53        -1.5950   -2.4260    0.5080 c3        1 MOL     -0.004415
    154 C54        -0.1380   -1.7890    0.6010 c         1 MOL      0.623369
    155 O22         0.8570   -2.2000   -0.0370 o         1 MOL     -0.753262
    156 O23        -0.0170   -0.7230    1.1980 o         1 MOL     -0.753262
    157 H67        -4.3720   -1.0960   -0.0150 hn        1 MOL      0.181764
    158 H68        -3.8860   -3.6260    1.4940 h1        1 MOL      0.133077
    159 H69        -2.1410   -2.3050    2.5260 hc        1 MOL      0.115524
    160 H70        -2.4860   -0.8980    1.7680 hc        1 MOL      0.115524
    161 H71        -2.0610   -1.9620   -0.3660 hc        1 MOL      0.022278
    162 H72        -1.6160   -3.4870    0.2530 hc        1 MOL      0.022278
    163 N14        -5.6850   -0.9540    2.3370 n         1 MOL     -0.018482
    164 C55        -6.6300   -0.5180    3.3580 c3        1 MOL     -0.138384
    165 H73        -6.6100    0.5700    3.4290 h1        1 MOL      0.051770
    166 H74        -7.6340   -0.8460    3.0890 h1        1 MOL      0.051770
    167 H75        -6.3510   -0.9490    4.3190 h1        1 MOL      0.051770
    168 H76        -5.6900   -0.5010    1.4390 hn        1 MOL      0.042751
    169 Ca1         2.1920   -0.0010   -0.1260 Ca        1 MOL      1.752772
    170 O24         3.9170    1.3070    1.7460 oh        1 MOL     -0.932659
    171 H77         4.5700    0.6440    1.9980 ho        1 MOL      0.416690
    172 H78         3.3570    1.3980    2.5180 ho        1 MOL      0.416690
@<TRIPOS>BOND
     1    1    2 1   
     2    1    4 1   
     3    1    5 1   
     4    1    6 1   
     5    2    3 2   
     6    2    7 1   
     7    7    8 1   
     8    7   15 1   
     9    8    9 1   
    10    8   11 1   
    11    8   16 1   
    12    9   10 2   
    13    9   19 1   
    14   11   12 1   
    15   11   17 1   
    16   11   18 1   
    17   12   13 1   
    18   12   14 1   
    19   19   20 1   
    20   19   24 1   
    21   20   21 1   
    22   20   23 1   
    23   20   25 1   
    24   21   22 2   
    25   21   29 1   
    26   23   26 1   
    27   23   27 1   
    28   23   28 1   
    29   29   30 1   
    30   29   37 1   
    31   30   31 1   
    32   30   33 1   
    33   30   38 1   
    34   31   32 2   
    35   31   41 1   
    36   33   34 1   
    37   33   39 1   
    38   33   40 1   
    39   34   35 1   
    40   34   36 1   
    41   41   42 1   
    42   41   45 1   
    43   42   43 1   
    44   42   46 1   
    45   42   47 1   
    46   43   44 2   
    47   43   48 1   
    48   48   49 1   
    49   48   56 1   
    50   49   50 1   
    51   49   52 1   
    52   49   57 1   
    53   50   51 2   
    54   50   62 1   
    55   52   53 1   
    56   52   58 1   
    57   52   59 1   
    58   53   54 1   
    59   53   55 2   
    60   54   60 1   
    61   54   61 1   
    62   62   63 1   
    63   62   66 1   
    64   63   64 1   
    65   63   67 1   
    66   63   68 1   
    67   64   65 2   
    68   64   69 1   
    69   69   70 1   
    70   69   76 1   
    71   70   71 1   
    72   70   73 1   
    73   70   77 1   
    74   71   72 2   
    75   71   83 1   
    76   73   74 1   
    77   73   75 1   
    78   73   78 1   
    79   74   80 1   
    80   74   81 1   
    81   74   82 1   
    82   75   79 1   
    83   83   84 1   
    84   83   91 1   
    85   84   85 1   
    86   84   87 1   
    87   84   92 1   
    88   85   86 2   
    89   85  102 1   
    90   87   88 1   
    91   87   89 1   
    92   87   93 1   
    93   88   90 1   
    94   88   94 1   
    95   88   95 1   
    96   89   96 1   
    97   89   97 1   
    98   89   98 1   
    99   90   99 1   
   100   90  100 1   
   101   90  101 1   
   102  102  103 1   
   103  102  110 1   
   104  103  104 1   
   105  103  106 1   
   106  103  111 1   
   107  104  105 2   
   108  104  114 1   
   109  106  107 1   
   110  106  112 1   
   111  106  113 1   
   112  107  108 1   
   113  107  109 1   
   114  114  115 1   
   115  114  125 1   
   116  115  116 1   
   117  115  118 1   
   118  115  126 1   
   119  116  117 2   
   120  116  134 1   
   121  118  119 1   
   122  118  127 1   
   123  118  128 1   
   124  119  120 ar  
   125  119  121 ar  
   126  120  122 ar  
   127  120  129 1   
   128  121  123 ar  
   129  121  130 1   
   130  122  124 ar  
   131  122  131 1   
   132  123  124 ar  
   133  123  132 1   
   134  124  133 1   
   135  134  135 1   
   136  134  140 1   
   137  135  136 1   
   138  135  138 1   
   139  135  141 1   
   140  136  137 2   
   141  136  148 1   
   142  138  139 1   
   143  138  142 1   
   144  138  143 1   
   145  139  140 1   
   146  139  144 1   
   147  139  145 1   
   148  140  146 1   
   149  140  147 1   
   150  148  149 1   
   151  148  157 1   
   152  149  150 1   
   153  149  152 1   
   154  149  158 1   
   155  150  151 2   
   156  150  163 1   
   157  152  153 1   
   158  152  159 1   
   159  152  160 1   
   160  153  154 1   
   161  153  161 1   
   162  153  162 1   
   163  154  155 1   
   164  154  156 1   
   165  163  164 1   
   166  163  168 1   
   167  164  165 1   
   168  164  166 1   
   169  164  167 1   
   170  170  171 1   
   171  170  172 1   
@<TRIPOS>SUBSTRUCTURE
     1 MOL         1 TEMP              0 ****  ****    0 ROOT
