@<TRIPOS>MOLECULE
MOL
  189   185     1     0     0
SMALL
resp


@<TRIPOS>ATOM
      1 C1          1.8780   -3.8550    6.1100 c3        1 MOL     -0.503265
      2 C2          1.8280   -3.4520    4.6010 c         1 MOL      0.686716
      3 O1          1.3820   -2.3340    4.2670 o         1 MOL     -0.541753
      4 H1          0.8970   -3.6990    6.5590 hc        1 MOL      0.134115
      5 H2          2.1540   -4.9050    6.1970 hc        1 MOL      0.134115
      6 H3          2.6160   -3.2400    6.6260 hc        1 MOL      0.134115
      7 N1          2.4080   -4.3270    3.6850 n         1 MOL     -0.548148
      8 C3          2.7980   -3.8200    2.3870 c3        1 MOL      0.146293
      9 C4          2.8120   -4.8700    1.3590 c         1 MOL      0.354100
     10 O2          3.3420   -5.9850    1.5810 o         1 MOL     -0.573321
     11 C5          4.2140   -3.2320    2.4890 c3        1 MOL     -0.122383
     12 C6          4.7660   -2.5300    1.2690 c         1 MOL      0.619445
     13 O3          3.9520   -2.1630    0.3670 o         1 MOL     -0.668722
     14 O4          5.9600   -2.0780    1.3450 o         1 MOL     -0.668722
     15 H4          2.5610   -5.2830    3.9580 hn        1 MOL      0.310812
     16 H5          2.1480   -2.9790    2.1590 h1        1 MOL      0.038156
     17 H6          4.8680   -4.0460    2.8050 hc        1 MOL      0.028848
     18 H7          4.2190   -2.6310    3.3990 hc        1 MOL      0.028848
     19 N2          2.2540   -4.6150    0.1880 n         1 MOL      0.066686
     20 C7          2.2910   -5.5420   -0.9420 c3        1 MOL     -0.172036
     21 C8          3.0860   -5.0470   -2.1940 c         1 MOL      0.462668
     22 O5          3.0130   -5.6160   -3.3250 o         1 MOL     -0.558260
     23 C9          0.9160   -6.2370   -1.1750 c3        1 MOL      0.355115
     24 C10        -0.0460   -5.2300   -1.9160 c3        1 MOL     -0.090029
     25 C11         0.3000   -6.7770    0.1370 c3        1 MOL     -0.191021
     26 C12        -1.4150   -5.8280   -2.1930 c3        1 MOL     -0.276674
     27 H8          1.6290   -3.8310    0.0850 hn        1 MOL      0.074789
     28 H9          2.9700   -6.3080   -0.5390 h1        1 MOL      0.063572
     29 H10         1.1270   -7.0510   -1.8580 hc        1 MOL     -0.073682
     30 H11         0.4970   -4.9190   -2.7990 hc        1 MOL      0.079315
     31 H12        -0.2400   -4.4020   -1.2320 hc        1 MOL      0.079315
     32 H13         0.0770   -5.9470    0.8060 hc        1 MOL      0.017512
     33 H14        -0.5140   -7.4900   -0.0300 hc        1 MOL      0.017512
     34 H15         1.0610   -7.4510    0.5280 hc        1 MOL      0.017512
     35 H16        -2.0140   -6.0810   -1.3100 hc        1 MOL      0.064329
     36 H17        -2.0760   -5.1480   -2.7200 hc        1 MOL      0.064329
     37 H18        -1.2730   -6.6770   -2.8650 hc        1 MOL      0.064329
     38 N3          3.7670   -3.8860   -2.0750 n         1 MOL     -0.399738
     39 C13         4.4700   -3.2690   -3.1930 c3        1 MOL      0.125972
     40 C14         5.7290   -2.4190   -2.8530 c         1 MOL      0.241007
     41 O6          6.5640   -2.2780   -3.7250 o         1 MOL     -0.507539
     42 C15         3.5100   -2.3700   -4.0470 c3        1 MOL     -0.348892
     43 C16         2.7330   -1.3190   -3.2880 c         1 MOL      0.729064
     44 O7          3.1660   -0.8780   -2.2290 o         1 MOL     -0.687696
     45 O8          1.6410   -0.9080   -3.7520 o         1 MOL     -0.687696
     46 H19         3.7410   -3.2890   -1.2550 hn        1 MOL      0.287860
     47 H20         4.7680   -3.9580   -3.9880 h1        1 MOL      0.083920
     48 H21         2.6930   -2.9760   -4.4240 hc        1 MOL      0.100254
     49 H22         4.1220   -1.8820   -4.8110 hc        1 MOL      0.100254
     50 N4          5.9140   -1.7910   -1.6990 n         1 MOL     -0.076042
     51 C17         7.0050   -0.8440   -1.4360 c3        1 MOL     -0.027300
     52 C18         6.9620    0.4920   -2.1590 c         1 MOL      0.371474
     53 O9          7.9920    1.0090   -2.6550 o         1 MOL     -0.581752
     54 H23         5.1870   -1.8370   -0.9960 hn        1 MOL      0.081151
     55 H24         7.9680   -1.2930   -1.6710 h1        1 MOL      0.052804
     56 H25         7.0820   -0.6600   -0.3670 h1        1 MOL      0.052804
     57 N5          5.7470    1.0590   -2.3860 n         1 MOL     -0.072828
     58 C19         5.6260    2.3800   -3.0150 c3        1 MOL     -0.084602
     59 C20         5.9720    3.4460   -1.9280 c         1 MOL      0.435054
     60 O10         6.2990    4.5660   -2.2890 o         1 MOL     -0.556655
     61 C21         4.2150    2.6900   -3.4770 c3        1 MOL     -0.308106
     62 C22         3.1060    2.4580   -2.4240 c         1 MOL      0.801512
     63 O11         3.3090    1.8450   -1.3680 o         1 MOL     -0.737346
     64 O12         1.9400    2.9080   -2.7010 o         1 MOL     -0.737346
     65 H26         4.9380    0.5290   -2.0690 hn        1 MOL      0.229066
     66 H27         6.2480    2.2980   -3.9050 h1        1 MOL      0.123447
     67 H28         4.0490    2.0290   -4.3240 hc        1 MOL      0.094593
     68 H29         4.1400    3.7010   -3.8770 hc        1 MOL      0.094593
     69 N6          6.0220    3.0660   -0.6310 n         1 MOL     -0.203107
     70 C23         6.3600    3.9450    0.4770 c3        1 MOL     -0.105326
     71 C24         5.1650    4.4880    1.2740 c         1 MOL      0.438724
     72 O13         5.3640    5.2010    2.2280 o         1 MOL     -0.600965
     73 H30         5.7690    2.1050   -0.4440 hn        1 MOL      0.132752
     74 H31         6.9670    4.7930    0.1500 h1        1 MOL      0.092838
     75 H32         7.1110    3.3870    1.0400 h1        1 MOL      0.092838
     76 N7          3.9490    4.1340    0.9370 n         1 MOL     -0.256719
     77 C25         2.7800    4.4420    1.7380 c3        1 MOL      0.331236
     78 C26         2.0030    3.1640    1.9900 c         1 MOL      0.249240
     79 O14         2.0070    2.2400    1.1860 o         1 MOL     -0.459700
     80 C27         1.8450    5.5330    1.0750 c3        1 MOL     -0.189380
     81 C28         2.5910    6.8690    1.1540 c3        1 MOL     -0.191285
     82 C29         1.8210    8.0020    0.5990 c         1 MOL      0.669147
     83 N8          1.6280    8.1060   -0.6870 n         1 MOL     -0.814478
     84 O15         1.2690    8.8230    1.2750 o         1 MOL     -0.598494
     85 H33         3.8780    3.4860    0.1600 hn        1 MOL      0.202943
     86 H34         3.0770    4.7800    2.7230 h1        1 MOL     -0.003866
     87 H35         0.9240    5.5170    1.6630 hc        1 MOL      0.098268
     88 H36         1.8130    5.2540    0.0240 hc        1 MOL      0.098268
     89 H37         3.4930    6.8010    0.5580 hc        1 MOL      0.073923
     90 H38         2.7950    7.0950    2.2080 hc        1 MOL      0.073923
     91 H39         1.9860    7.4300   -1.3510 hn        1 MOL      0.366114
     92 H40         1.1420    8.9240   -1.0030 hn        1 MOL      0.366114
     93 N9          1.1290    3.2080    3.0140 n         1 MOL     -0.404185
     94 C30         0.1170    2.1490    3.1930 c3        1 MOL     -0.005213
     95 C31        -1.1310    2.6130    2.4640 c         1 MOL      0.560191
     96 O16        -1.3500    3.8210    2.3840 o         1 MOL     -0.632114
     97 C32        -0.1160    1.8730    4.6390 c3        1 MOL      0.043974
     98 C33        -1.3700    0.9150    4.7730 c3        1 MOL     -0.202452
     99 C34         1.0330    1.0960    5.3170 c3        1 MOL     -0.202452
    100 H41         1.1290    3.9950    3.6480 hn        1 MOL      0.268342
    101 H42         0.5290    1.2520    2.7260 h1        1 MOL      0.243318
    102 H43        -0.3170    2.7510    5.2470 hc        1 MOL      0.031550
    103 H44        -1.2680   -0.0070    4.1970 hc        1 MOL      0.042654
    104 H45        -1.5220    0.6100    5.8040 hc        1 MOL      0.042654
    105 H46        -2.2470    1.4790    4.4440 hc        1 MOL      0.042654
    106 H47         2.0030    1.3980    4.9030 hc        1 MOL      0.042654
    107 H48         0.9350    1.1760    6.3920 hc        1 MOL      0.042654
    108 H49         1.0470    0.0740    4.9580 hc        1 MOL      0.042654
    109 N10        -1.9180    1.7950    1.8000 n         1 MOL      0.037360
    110 C35        -2.9990    2.0860    0.9250 c3        1 MOL      0.181420
    111 C36        -4.3580    1.5420    1.4140 c         1 MOL      0.162604
    112 O17        -4.4860    0.6060    2.2130 o         1 MOL     -0.370842
    113 C37        -2.6460    1.5000   -0.4520 c3        1 MOL     -0.378552
    114 C38        -3.6200    2.0080   -1.5810 c         1 MOL      0.762963
    115 N11        -3.9110    3.2440   -1.7800 n         1 MOL     -0.809113
    116 O18        -4.1600    1.2210   -2.3130 o         1 MOL     -0.540177
    117 H50        -1.4700    0.9200    1.5860 hn        1 MOL     -0.117997
    118 H51        -3.0400    3.1720    0.8860 h1        1 MOL      0.000702
    119 H52        -2.7220    0.4140   -0.4620 hc        1 MOL      0.137439
    120 H53        -1.6560    1.8080   -0.7920 hc        1 MOL      0.137439
    121 H54        -3.4030    4.0180   -1.3900 hn        1 MOL      0.358197
    122 H55        -4.3570    3.4810   -2.6600 hn        1 MOL      0.358197
    123 N12        -5.4780    2.0340    0.9300 n         1 MOL     -0.129483
    124 C39        -6.8020    1.4580    1.2380 c3        1 MOL      0.035127
    125 C40        -6.8100   -0.0370    0.7880 c         1 MOL      0.369659
    126 O19        -7.4230   -0.8530    1.4880 o         1 MOL     -0.541871
    127 C41        -7.9490    2.2830    0.5770 c3        1 MOL     -0.166533
    128 C42        -7.8980    2.5430   -0.9490 ca        1 MOL     -0.005515
    129 C43        -8.3530    1.5500   -1.8320 ca        1 MOL     -0.086953
    130 C44        -7.3580    3.7390   -1.3970 ca        1 MOL     -0.086953
    131 C45        -8.2820    1.7880   -3.2250 ca        1 MOL     -0.381255
    132 C46        -7.3900    4.0440   -2.7930 ca        1 MOL     -0.381255
    133 C47        -7.7990    3.0450   -3.6980 ca        1 MOL      0.480890
    134 O20        -7.6860    3.2710   -5.0490 oh        1 MOL     -0.597772
    135 H56        -5.4480    2.9060    0.4110 hn        1 MOL      0.162841
    136 H57        -7.0570    1.4430    2.3060 h1        1 MOL      0.076828
    137 H58        -7.9330    3.2920    0.9880 hc        1 MOL      0.058290
    138 H59        -8.8910    1.8100    0.8500 hc        1 MOL      0.058290
    139 H60        -8.5360    0.5210   -1.5540 ha        1 MOL      0.120074
    140 H61        -6.9240    4.4240   -0.6860 ha        1 MOL      0.120074
    141 H62        -8.5550    0.9910   -3.9060 ha        1 MOL      0.175910
    142 H63        -6.9490    4.9780   -3.0990 ha        1 MOL      0.175910
    143 H64        -8.0590    2.6230   -5.6380 ho        1 MOL      0.435229
    144 N13        -6.0470   -0.4140   -0.2930 n         1 MOL      0.145740
    145 C48        -6.0590   -1.8470   -0.7330 c3        1 MOL     -0.158579
    146 C49        -5.3230   -2.7440    0.3530 c         1 MOL      0.309802
    147 O21        -5.5880   -3.9540    0.4820 o         1 MOL     -0.534065
    148 C50        -5.3820   -1.9960   -2.1370 c3        1 MOL      0.188102
    149 C51        -6.2850   -1.3740   -3.2810 c3        1 MOL     -0.438808
    150 C52        -5.9790   -2.0610   -4.6340 c         1 MOL      0.691047
    151 O22        -4.8640   -1.8680   -5.1830 o         1 MOL     -0.728529
    152 O23        -6.8260   -2.8890   -5.1290 o         1 MOL     -0.728529
    153 H65        -5.5200    0.3340   -0.7360 hn        1 MOL      0.101187
    154 H66        -7.0820   -2.2080   -0.7630 h1        1 MOL      0.092676
    155 H67        -5.3400   -3.0650   -2.3210 hc        1 MOL      0.042507
    156 H68        -4.3360   -1.6700   -2.1150 hc        1 MOL      0.042507
    157 H69        -5.9470   -0.3390   -3.3720 hc        1 MOL      0.094203
    158 H70        -7.3250   -1.4820   -3.0040 hc        1 MOL      0.094203
    159 N14        -4.5130   -2.1310    1.1380 n         1 MOL      0.016718
    160 C53        -3.6970   -2.7020    2.2160 c3        1 MOL     -0.248286
    161 C54        -4.2920   -2.4330    3.6100 c         1 MOL      0.514999
    162 O24        -3.6480   -2.7990    4.6020 o         1 MOL     -0.566322
    163 C55        -2.2530   -2.0860    2.0490 c3        1 MOL      0.180392
    164 C56        -1.7200   -2.1120    0.5790 c3        1 MOL     -0.484746
    165 C57        -0.2850   -1.5050    0.4940 c         1 MOL      0.812621
    166 O25        -0.0570   -0.4200    1.0190 o         1 MOL     -0.716897
    167 O26         0.6550   -2.0420   -0.1110 o         1 MOL     -0.716897
    168 H71        -4.5590   -1.1220    1.1560 hn        1 MOL     -0.190236
    169 H72        -3.6360   -3.7850    2.1520 h1        1 MOL      0.145151
    170 H73        -1.4880   -2.5300    2.6770 hc        1 MOL      0.037029
    171 H74        -2.4490   -1.0500    2.3070 hc        1 MOL      0.037029
    172 H75        -2.4150   -1.5620   -0.0520 hc        1 MOL      0.149145
    173 H76        -1.6360   -3.1460    0.2540 hc        1 MOL      0.149145
    174 N15        -5.4560   -1.7830    3.7320 n         1 MOL     -0.205319
    175 C58        -6.1240   -1.5580    5.0240 c3        1 MOL     -0.240250
    176 H77        -7.0400   -0.9900    4.8650 h1        1 MOL      0.093899
    177 H78        -6.3670   -2.5180    5.4800 h1        1 MOL      0.093899
    178 H79        -5.4600   -1.0000    5.6840 h1        1 MOL      0.093899
    179 H80        -5.7350   -1.2770    2.8970 hn        1 MOL      0.262092
    180 Ca1         2.3430   -0.1320    0.0830 Ca        1 MOL      1.702654
    181 O27         4.8240    0.6050    1.0120 oh        1 MOL     -0.786622
    182 H81         5.1110    0.9060    1.8750 ho        1 MOL      0.391634
    183 H82         5.2750   -0.2300    0.8880 ho        1 MOL      0.391634
    184 O28         2.6530   -0.5150    2.7050 oh        1 MOL     -0.786622
    185 H83         3.5290   -0.5870    3.0950 ho        1 MOL      0.391634
    186 H84         2.0700   -0.8800    3.3740 ho        1 MOL      0.391634
    187 O29         0.6300    0.8320   -1.5800 oh        1 MOL     -0.786622
    188 H85         0.1710    0.3750   -2.2830 ho        1 MOL      0.391634
    189 H86         0.8260    1.6910   -1.9370 ho        1 MOL      0.391634
@<TRIPOS>BOND
     1    1    2 1   
     2    1    4 1   
     3    1    5 1   
     4    1    6 1   
     5    2    3 2   
     6    2    7 1   
     7    7    8 1   
     8    7   15 1   
     9    8    9 1   
    10    8   11 1   
    11    8   16 1   
    12    9   10 2   
    13    9   19 1   
    14   11   12 1   
    15   11   17 1   
    16   11   18 1   
    17   12   13 1   
    18   12   14 1   
    19   19   20 1   
    20   19   27 1   
    21   20   21 1   
    22   20   23 1   
    23   20   28 1   
    24   21   22 2   
    25   21   38 1   
    26   23   24 1   
    27   23   25 1   
    28   23   29 1   
    29   24   26 1   
    30   24   30 1   
    31   24   31 1   
    32   25   32 1   
    33   25   33 1   
    34   25   34 1   
    35   26   35 1   
    36   26   36 1   
    37   26   37 1   
    38   38   39 1   
    39   38   46 1   
    40   39   40 1   
    41   39   42 1   
    42   39   47 1   
    43   40   41 2   
    44   40   50 1   
    45   42   43 1   
    46   42   48 1   
    47   42   49 1   
    48   43   44 1   
    49   43   45 1   
    50   50   51 1   
    51   50   54 1   
    52   51   52 1   
    53   51   55 1   
    54   51   56 1   
    55   52   53 2   
    56   52   57 1   
    57   57   58 1   
    58   57   65 1   
    59   58   59 1   
    60   58   61 1   
    61   58   66 1   
    62   59   60 2   
    63   59   69 1   
    64   61   62 1   
    65   61   67 1   
    66   61   68 1   
    67   62   63 1   
    68   62   64 1   
    69   69   70 1   
    70   69   73 1   
    71   70   71 1   
    72   70   74 1   
    73   70   75 1   
    74   71   72 2   
    75   71   76 1   
    76   76   77 1   
    77   76   85 1   
    78   77   78 1   
    79   77   80 1   
    80   77   86 1   
    81   78   79 2   
    82   78   93 1   
    83   80   81 1   
    84   80   87 1   
    85   80   88 1   
    86   81   82 1   
    87   81   89 1   
    88   81   90 1   
    89   82   83 1   
    90   82   84 2   
    91   83   91 1   
    92   83   92 1   
    93   93   94 1   
    94   93  100 1   
    95   94   95 1   
    96   94   97 1   
    97   94  101 1   
    98   95   96 2   
    99   95  109 1   
   100   97   98 1   
   101   97   99 1   
   102   97  102 1   
   103   98  103 1   
   104   98  104 1   
   105   98  105 1   
   106   99  106 1   
   107   99  107 1   
   108   99  108 1   
   109  109  110 1   
   110  109  117 1   
   111  110  111 1   
   112  110  113 1   
   113  110  118 1   
   114  111  112 2   
   115  111  123 1   
   116  113  114 1   
   117  113  119 1   
   118  113  120 1   
   119  114  115 1   
   120  114  116 2   
   121  115  121 1   
   122  115  122 1   
   123  123  124 1   
   124  123  135 1   
   125  124  125 1   
   126  124  127 1   
   127  124  136 1   
   128  125  126 2   
   129  125  144 1   
   130  127  128 1   
   131  127  137 1   
   132  127  138 1   
   133  128  129 ar  
   134  128  130 ar  
   135  129  131 ar  
   136  129  139 1   
   137  130  132 ar  
   138  130  140 1   
   139  131  133 ar  
   140  131  141 1   
   141  132  133 ar  
   142  132  142 1   
   143  133  134 1   
   144  134  143 1   
   145  144  145 1   
   146  144  153 1   
   147  145  146 1   
   148  145  148 1   
   149  145  154 1   
   150  146  147 2   
   151  146  159 1   
   152  148  149 1   
   153  148  155 1   
   154  148  156 1   
   155  149  150 1   
   156  149  157 1   
   157  149  158 1   
   158  150  151 1   
   159  150  152 1   
   160  159  160 1   
   161  159  168 1   
   162  160  161 1   
   163  160  163 1   
   164  160  169 1   
   165  161  162 2   
   166  161  174 1   
   167  163  164 1   
   168  163  170 1   
   169  163  171 1   
   170  164  165 1   
   171  164  172 1   
   172  164  173 1   
   173  165  166 1   
   174  165  167 1   
   175  174  175 1   
   176  174  179 1   
   177  175  176 1   
   178  175  177 1   
   179  175  178 1   
   180  181  182 1   
   181  181  183 1   
   182  184  185 1   
   183  184  186 1   
   184  187  188 1   
   185  187  189 1   
@<TRIPOS>SUBSTRUCTURE
     1 MOL         1 TEMP              0 ****  ****    0 ROOT
