@<TRIPOS>MOLECULE
MOL
  179   176     1     0     0
SMALL
resp


@<TRIPOS>ATOM
      1 C1          1.8410    2.0810    5.9270 c3        1 MOL     -0.175745
      2 C2          1.3010    1.8640    4.4840 c         1 MOL      0.706267
      3 O1          2.2000    1.7710    3.6380 o         1 MOL     -0.565750
      4 H1          1.9650    3.1480    6.1110 hc        1 MOL      0.039714
      5 H2          1.1340    1.6690    6.6460 hc        1 MOL      0.039714
      6 H3          2.8040    1.5800    6.0340 hc        1 MOL      0.039714
      7 N1         -0.0150    1.9320    4.3330 n         1 MOL     -0.593945
      8 C3         -0.4780    1.9320    2.9750 c3        1 MOL     -0.059376
      9 C4         -0.3610    3.2660    2.3240 c         1 MOL      0.470487
     10 O2         -1.1040    4.1950    2.6570 o         1 MOL     -0.472562
     11 C5         -1.9450    1.4190    3.0410 c3        1 MOL     -0.119269
     12 C6         -2.6660    1.1890    1.6840 c         1 MOL      0.874064
     13 O3         -2.0240    1.4400    0.6530 o         1 MOL     -0.816664
     14 O4         -3.8480    0.7860    1.7410 o         1 MOL     -0.816664
     15 H4         -0.6130    2.1590    5.1150 hn        1 MOL      0.366327
     16 H5          0.1330    1.1840    2.4660 h1        1 MOL      0.056878
     17 H6         -2.5470    2.1110    3.6310 hc        1 MOL      0.043533
     18 H7         -1.8770    0.5110    3.6340 hc        1 MOL      0.043533
     19 N2          0.6890    3.4890    1.5280 n         1 MOL     -0.094683
     20 C7          1.1340    4.8160    1.0280 c3        1 MOL     -0.160996
     21 C8          0.0460    5.6940    0.4060 c         1 MOL      0.399720
     22 O5         -0.1380    6.8970    0.6950 o         1 MOL     -0.532049
     23 C9          2.2650    4.4850    0.0250 c3        1 MOL      0.074485
     24 C10         2.8930    5.7970   -0.3430 c3        1 MOL     -0.132701
     25 C11         4.1380    5.5790   -1.1590 c3        1 MOL     -0.022665
     26 C12         4.7320    6.9440   -1.5470 c3        1 MOL      0.083742
     27 N3          5.8860    6.8550   -2.4400 n4        1 MOL     -0.478845
     28 H8          1.3380    2.7170    1.4540 hn        1 MOL      0.159664
     29 H9          1.6100    5.2340    1.9180 h1        1 MOL      0.107930
     30 H10         1.7930    4.1510   -0.9010 hc        1 MOL      0.052486
     31 H11         2.9740    3.7970    0.4800 hc        1 MOL      0.052486
     32 H12         3.1240    6.2960    0.5980 hc        1 MOL      0.051985
     33 H13         2.2160    6.4680   -0.8810 hc        1 MOL      0.051985
     34 H14         3.9690    4.9470   -2.0250 hc        1 MOL      0.045901
     35 H15         4.8200    5.1110   -0.4530 hc        1 MOL      0.045901
     36 H16         4.9390    7.4300   -0.5880 hx        1 MOL      0.075375
     37 H17         3.8790    7.4950   -1.9470 hx        1 MOL      0.075375
     38 H18         6.1330    7.7920   -2.7310 hn        1 MOL      0.361183
     39 H19         6.6690    6.4300   -1.9610 hn        1 MOL      0.361183
     40 H20         5.6940    6.3160   -3.2750 hn        1 MOL      0.361183
     41 N4         -0.8020    5.0160   -0.3750 n         1 MOL     -0.143371
     42 C13        -1.9490    5.6310   -1.1740 c3        1 MOL     -0.025310
     43 C14        -3.2860    5.2620   -0.5370 c         1 MOL      0.372159
     44 O6         -4.3210    5.5490   -1.1300 o         1 MOL     -0.514344
     45 C15        -1.9170    5.2940   -2.6710 c3        1 MOL     -0.100342
     46 C16        -1.7790    3.7820   -2.9480 c         1 MOL      0.724484
     47 O7         -1.3820    3.4940   -4.0740 o         1 MOL     -0.708984
     48 O8         -1.9810    2.8800   -2.0990 o         1 MOL     -0.708984
     49 H21        -0.8180    4.0020   -0.3850 hn        1 MOL      0.063732
     50 H22        -1.8110    6.7100   -1.2100 h1        1 MOL      0.107958
     51 H23        -0.9910    5.7350   -3.0510 hc        1 MOL      0.044524
     52 H24        -2.7150    5.8260   -3.1930 hc        1 MOL      0.044524
     53 N5         -3.3760    4.5230    0.5890 n         1 MOL     -0.013642
     54 C17        -4.6140    4.2440    1.3320 c3        1 MOL     -0.281437
     55 C18        -5.6680    3.3790    0.5270 c         1 MOL      0.574758
     56 O9         -6.8320    3.6820    0.7120 o         1 MOL     -0.562456
     57 H25        -2.5690    4.2710    1.1280 hn        1 MOL      0.081433
     58 H26        -5.1310    5.2100    1.3910 h1        1 MOL      0.120625
     59 H27        -4.4450    3.8080    2.3140 h1        1 MOL      0.120625
     60 N6         -5.2210    2.4410   -0.2850 n         1 MOL     -0.305474
     61 C19        -6.0760    1.5940   -1.1290 c3        1 MOL     -0.016052
     62 C20        -6.6900    0.3440   -0.4250 c         1 MOL      0.452290
     63 O10        -7.5990   -0.2190   -1.0560 o         1 MOL     -0.511946
     64 C21        -5.2910    1.3950   -2.4300 c3        1 MOL     -0.124670
     65 C22        -4.5730    0.0520   -2.4930 c         1 MOL      0.329107
     66 N7         -4.9160   -0.8470   -3.4030 n         1 MOL     -0.581493
     67 O11        -3.7490   -0.2930   -1.7050 o         1 MOL     -0.565053
     68 H28        -4.2300    2.3790   -0.4440 hn        1 MOL      0.223622
     69 H29        -6.9520    2.1940   -1.3500 h1        1 MOL      0.112518
     70 H30        -4.6360    2.2310   -2.6880 hc        1 MOL      0.086188
     71 H31        -6.0130    1.2670   -3.2350 hc        1 MOL      0.086188
     72 H32        -5.5250   -0.5060   -4.1380 hn        1 MOL      0.328629
     73 H33        -4.4090   -1.7170   -3.4980 hn        1 MOL      0.328629
     74 N8         -6.2220   -0.0760    0.8190 n         1 MOL     -0.294379
     75 C23        -6.6460   -1.3250    1.3730 c3        1 MOL     -0.264334
     76 C24        -5.6890   -2.5050    1.3090 c         1 MOL      0.570329
     77 O12        -6.0000   -3.5630    1.8360 o         1 MOL     -0.541031
     78 H34        -5.3890    0.2340    1.2970 hn        1 MOL      0.327625
     79 H35        -7.4950   -1.6420    0.7610 h1        1 MOL      0.122310
     80 H36        -7.0300   -1.0860    2.3650 h1        1 MOL      0.122310
     81 N9         -4.5520   -2.2400    0.6610 n         1 MOL     -0.383053
     82 C25        -3.4000   -3.2080    0.6930 c3        1 MOL      0.050865
     83 C26        -2.0320   -2.4110    0.7470 c         1 MOL      0.334392
     84 O13        -1.9010   -1.4750   -0.0150 o         1 MOL     -0.518144
     85 C27        -3.3600   -4.1340   -0.5100 c3        1 MOL      0.153831
     86 C28        -4.5120   -5.1490   -0.6560 ca        1 MOL     -0.269715
     87 C29        -5.6860   -4.8600   -1.3570 ca        1 MOL      0.049096
     88 C30        -4.4480   -6.3460    0.0780 ca        1 MOL      0.049096
     89 C31        -6.7630   -5.7160   -1.4780 ca        1 MOL     -0.431143
     90 C32        -5.5860   -7.2630    0.0440 ca        1 MOL     -0.431143
     91 C33        -6.7270   -6.9280   -0.7530 ca        1 MOL      0.528487
     92 O14        -7.6980   -7.8310   -0.8790 oh        1 MOL     -0.508961
     93 H37        -4.3870   -1.3520    0.2070 hn        1 MOL      0.445915
     94 H38        -3.4420   -3.8560    1.5600 h1        1 MOL      0.047519
     95 H39        -2.4670   -4.7580   -0.5040 hc        1 MOL     -0.011515
     96 H40        -3.3990   -3.4590   -1.3590 hc        1 MOL     -0.011515
     97 H41        -5.6690   -3.9330   -1.9140 ha        1 MOL      0.091585
     98 H42        -3.5790   -6.6360    0.6470 ha        1 MOL      0.091585
     99 H43        -7.7020   -5.4540   -1.9330 ha        1 MOL      0.181195
    100 H44        -5.5570   -8.1830    0.6000 ha        1 MOL      0.181195
    101 H45        -7.5070   -8.7010   -0.5310 ho        1 MOL      0.355469
    102 N10        -1.1080   -2.8610    1.6290 n         1 MOL     -0.355415
    103 C34         0.3200   -2.5270    1.7140 c3        1 MOL     -0.169805
    104 C35         1.1480   -3.5020    0.8990 c         1 MOL      0.604056
    105 O15         0.9970   -4.7210    0.9850 o         1 MOL     -0.580988
    106 C36         0.8660   -2.5610    3.1630 c3        1 MOL      0.183830
    107 C37         0.1470   -1.5750    4.0690 c3        1 MOL      0.213484
    108 C38         2.4120   -2.2630    3.1180 c3        1 MOL     -0.509729
    109 C39         0.2350   -1.9590    5.5250 c3        1 MOL     -0.418151
    110 H46        -1.4100   -3.7090    2.1080 hn        1 MOL      0.270847
    111 H47         0.4220   -1.4820    1.4210 h1        1 MOL      0.173865
    112 H48         0.8160   -3.6080    3.4780 hc        1 MOL      0.007004
    113 H49        -0.8880   -1.6410    3.7290 hc        1 MOL     -0.007178
    114 H50         0.6530   -0.6060    3.9940 hc        1 MOL     -0.007178
    115 H51         2.9430   -3.1230    2.6970 hc        1 MOL      0.128500
    116 H52         2.6580   -1.3380    2.5980 hc        1 MOL      0.128500
    117 H53         2.7380   -1.9780    4.1140 hc        1 MOL      0.128500
    118 H54        -0.6380   -1.5850    6.0620 hc        1 MOL      0.089535
    119 H55         0.0700   -3.0350    5.5150 hc        1 MOL      0.089535
    120 H56         1.2150   -1.7660    5.9630 hc        1 MOL      0.089535
    121 N11         2.0880   -3.0700    0.1010 n         1 MOL     -0.188366
    122 C40         2.8910   -3.8500   -0.8710 c3        1 MOL      0.005817
    123 C41         4.4100   -3.9120   -0.4070 c         1 MOL      0.502040
    124 O16         4.7830   -3.2090    0.5520 o         1 MOL     -0.487742
    125 C42         2.8010   -3.2420   -2.3110 c3        1 MOL     -0.052840
    126 O17         3.3870   -1.9880   -2.3730 oh        1 MOL     -0.353747
    127 H57         2.3350   -2.0840    0.1210 hn        1 MOL      0.170476
    128 H58         2.6110   -4.8980   -0.9530 h1        1 MOL      0.063655
    129 H59         1.7280   -3.1860   -2.4620 h1        1 MOL      0.049117
    130 H60         3.2780   -3.8630   -3.0750 h1        1 MOL      0.049117
    131 H61         3.4330   -1.7980   -3.3150 ho        1 MOL      0.365569
    132 N12         5.2690   -4.7290   -1.0690 n         1 MOL     -0.431095
    133 C43         6.6370   -4.9760   -0.6160 c3        1 MOL      0.138681
    134 C44         7.4940   -3.7680   -0.9800 c         1 MOL      0.483602
    135 O18         8.4600   -3.4930   -0.2680 o         1 MOL     -0.531173
    136 C45         7.1230   -6.3340   -1.1090 c3        1 MOL     -0.380398
    137 H62         4.9750   -5.2330   -1.8920 hn        1 MOL      0.270573
    138 H63         6.6910   -5.0050    0.4620 h1        1 MOL      0.105230
    139 H64         6.6660   -7.1520   -0.5450 hc        1 MOL      0.115544
    140 H65         6.9000   -6.5120   -2.1580 hc        1 MOL      0.115544
    141 H66         8.2030   -6.3290   -1.0440 hc        1 MOL      0.115544
    142 N13         7.1130   -2.9840   -1.9530 n         1 MOL     -0.413684
    143 C46         7.6390   -1.6540   -2.2920 c3        1 MOL      0.218822
    144 C47         7.2450   -0.5670   -1.2870 c         1 MOL      0.320824
    145 O19         8.0060    0.3080   -0.9470 o         1 MOL     -0.525897
    146 C48         7.0880   -1.3420   -3.7080 c3        1 MOL     -0.371118
    147 H67         6.4340   -3.3950   -2.5820 hn        1 MOL      0.247353
    148 H68         8.7290   -1.6680   -2.2340 h1        1 MOL      0.061742
    149 H69         6.0250   -1.5560   -3.7500 hc        1 MOL      0.102267
    150 H70         7.3210   -0.2910   -3.9280 hc        1 MOL      0.102267
    151 H71         7.6060   -1.9480   -4.4580 hc        1 MOL      0.102267
    152 N14         6.0110   -0.6190   -0.8800 n         1 MOL      0.101208
    153 C49         5.4710    0.3560    0.0360 c3        1 MOL     -0.105027
    154 C50         6.0250    0.2700    1.4960 c         1 MOL      0.466150
    155 O20         5.8690    1.2270    2.2110 o         1 MOL     -0.546936
    156 C51         3.9430    0.2470    0.0610 c3        1 MOL     -0.120275
    157 C52         3.2740    0.9680   -1.1710 c3        1 MOL      0.036033
    158 C53         1.7770    0.8110   -1.2460 c         1 MOL      0.731327
    159 O21         1.0830    0.4230   -0.3530 o         1 MOL     -0.830861
    160 O22         1.2240    1.1100   -2.3370 o         1 MOL     -0.830861
    161 H72         5.3510   -1.3240   -1.1630 hn        1 MOL     -0.104177
    162 H73         5.7810    1.3630   -0.2500 h1        1 MOL      0.056349
    163 H74         3.6530    0.7000    1.0200 hc        1 MOL      0.093795
    164 H75         3.6660   -0.8080    0.0880 hc        1 MOL      0.093795
    165 H76         3.7370    0.5850   -2.0760 hc        1 MOL     -0.031110
    166 H77         3.5430    2.0180   -1.2530 hc        1 MOL     -0.031110
    167 N15         6.5290   -0.8700    1.8990 n         1 MOL     -0.125300
    168 C54         7.2670   -1.0030    3.1410 c3        1 MOL     -0.258103
    169 H78         7.2310   -0.0600    3.6860 h1        1 MOL      0.109151
    170 H79         6.8190   -1.7910    3.7480 h1        1 MOL      0.109151
    171 H80         8.3040   -1.2570    2.9230 h1        1 MOL      0.109151
    172 H81         6.4440   -1.6190    1.2240 hn        1 MOL      0.186233
    173 Ca1        -1.2290    0.5900   -1.5820 Ca        1 MOL      1.827017
    174 O23        -1.8040    0.7350   -4.0270 oh        1 MOL     -0.824112
    175 H82        -1.5810    0.4420   -4.9110 ho        1 MOL      0.402170
    176 H83        -1.6870    1.6830   -4.0490 ho        1 MOL      0.402170
    177 O24        -0.5480   -1.7240   -2.7970 oh        1 MOL     -0.824112
    178 H84        -0.7590   -2.5300   -2.3290 ho        1 MOL      0.402170
    179 H85        -0.4740   -1.9880   -3.7040 ho        1 MOL      0.402170
@<TRIPOS>BOND
     1    1    2 1   
     2    1    4 1   
     3    1    5 1   
     4    1    6 1   
     5    2    3 2   
     6    2    7 1   
     7    7    8 1   
     8    7   15 1   
     9    8    9 1   
    10    8   11 1   
    11    8   16 1   
    12    9   10 2   
    13    9   19 1   
    14   11   12 1   
    15   11   17 1   
    16   11   18 1   
    17   12   13 1   
    18   12   14 1   
    19   19   20 1   
    20   19   28 1   
    21   20   21 1   
    22   20   23 1   
    23   20   29 1   
    24   21   22 2   
    25   21   41 1   
    26   23   24 1   
    27   23   30 1   
    28   23   31 1   
    29   24   25 1   
    30   24   32 1   
    31   24   33 1   
    32   25   26 1   
    33   25   34 1   
    34   25   35 1   
    35   26   27 1   
    36   26   36 1   
    37   26   37 1   
    38   27   38 1   
    39   27   39 1   
    40   27   40 1   
    41   41   42 1   
    42   41   49 1   
    43   42   43 1   
    44   42   45 1   
    45   42   50 1   
    46   43   44 2   
    47   43   53 1   
    48   45   46 1   
    49   45   51 1   
    50   45   52 1   
    51   46   47 1   
    52   46   48 1   
    53   53   54 1   
    54   53   57 1   
    55   54   55 1   
    56   54   58 1   
    57   54   59 1   
    58   55   56 2   
    59   55   60 1   
    60   60   61 1   
    61   60   68 1   
    62   61   62 1   
    63   61   64 1   
    64   61   69 1   
    65   62   63 2   
    66   62   74 1   
    67   64   65 1   
    68   64   70 1   
    69   64   71 1   
    70   65   66 1   
    71   65   67 2   
    72   66   72 1   
    73   66   73 1   
    74   74   75 1   
    75   74   78 1   
    76   75   76 1   
    77   75   79 1   
    78   75   80 1   
    79   76   77 2   
    80   76   81 1   
    81   81   82 1   
    82   81   93 1   
    83   82   83 1   
    84   82   85 1   
    85   82   94 1   
    86   83   84 2   
    87   83  102 1   
    88   85   86 1   
    89   85   95 1   
    90   85   96 1   
    91   86   87 ar  
    92   86   88 ar  
    93   87   89 ar  
    94   87   97 1   
    95   88   90 ar  
    96   88   98 1   
    97   89   91 ar  
    98   89   99 1   
    99   90   91 ar  
   100   90  100 1   
   101   91   92 1   
   102   92  101 1   
   103  102  103 1   
   104  102  110 1   
   105  103  104 1   
   106  103  106 1   
   107  103  111 1   
   108  104  105 2   
   109  104  121 1   
   110  106  107 1   
   111  106  108 1   
   112  106  112 1   
   113  107  109 1   
   114  107  113 1   
   115  107  114 1   
   116  108  115 1   
   117  108  116 1   
   118  108  117 1   
   119  109  118 1   
   120  109  119 1   
   121  109  120 1   
   122  121  122 1   
   123  121  127 1   
   124  122  123 1   
   125  122  125 1   
   126  122  128 1   
   127  123  124 2   
   128  123  132 1   
   129  125  126 1   
   130  125  129 1   
   131  125  130 1   
   132  126  131 1   
   133  132  133 1   
   134  132  137 1   
   135  133  134 1   
   136  133  136 1   
   137  133  138 1   
   138  134  135 2   
   139  134  142 1   
   140  136  139 1   
   141  136  140 1   
   142  136  141 1   
   143  142  143 1   
   144  142  147 1   
   145  143  144 1   
   146  143  146 1   
   147  143  148 1   
   148  144  145 2   
   149  144  152 1   
   150  146  149 1   
   151  146  150 1   
   152  146  151 1   
   153  152  153 1   
   154  152  161 1   
   155  153  154 1   
   156  153  156 1   
   157  153  162 1   
   158  154  155 2   
   159  154  167 1   
   160  156  157 1   
   161  156  163 1   
   162  156  164 1   
   163  157  158 1   
   164  157  165 1   
   165  157  166 1   
   166  158  159 1   
   167  158  160 1   
   168  167  168 1   
   169  167  172 1   
   170  168  169 1   
   171  168  170 1   
   172  168  171 1   
   173  174  175 1   
   174  174  176 1   
   175  177  178 1   
   176  177  179 1   
@<TRIPOS>SUBSTRUCTURE
     1 MOL         1 TEMP              0 ****  ****    0 ROOT
