@<TRIPOS>MOLECULE
MOL
  189   185     1     0     0
SMALL
resp


@<TRIPOS>ATOM
      1 C1         -0.6230    2.9010   -4.8540 c3        1 MOL     -0.231395
      2 C2          0.0300    2.6740   -3.4820 c         1 MOL      0.519084
      3 O1         -0.5460    3.1280   -2.5310 o         1 MOL     -0.537556
      4 H1          0.0650    2.5870   -5.6390 hc        1 MOL      0.058712
      5 H2         -1.5410    2.3180   -4.9220 hc        1 MOL      0.058712
      6 H3         -0.8550    3.9600   -4.9760 hc        1 MOL      0.058712
      7 N1          1.2670    2.1110   -3.4770 n         1 MOL     -0.494674
      8 C3          2.0890    1.6750   -2.3330 c3        1 MOL      0.109126
      9 C4          2.8600    2.8780   -1.7990 c         1 MOL      0.491325
     10 O2          4.0840    2.9310   -1.7790 o         1 MOL     -0.476136
     11 C5          3.0290    0.5130   -2.5960 c3        1 MOL     -0.178481
     12 C6          3.9500    0.0900   -1.5120 c         1 MOL      0.693165
     13 O3          3.6170    0.3080   -0.3360 o         1 MOL     -0.646021
     14 O4          4.9710   -0.5650   -1.8840 o         1 MOL     -0.646021
     15 H4          1.5550    1.9290   -4.4350 hn        1 MOL      0.310802
     16 H5          1.3650    1.2910   -1.6100 h1        1 MOL      0.045305
     17 H6          3.7240    0.6550   -3.4310 hc        1 MOL      0.028971
     18 H7          2.4430   -0.3370   -2.9620 hc        1 MOL      0.028971
     19 N2          2.0980    3.8500   -1.2680 n         1 MOL     -0.437118
     20 C7          2.7270    5.1090   -0.9010 c3        1 MOL     -0.014433
     21 C8          3.6710    5.0820    0.3130 c         1 MOL      0.480924
     22 O5          4.3270    6.0720    0.5390 o         1 MOL     -0.542152
     23 C9          1.7180    6.2170   -0.9010 c3        1 MOL     -0.066243
     24 C10         0.7970    6.4730   -2.1310 c3        1 MOL      0.269012
     25 C11         0.0880    7.8420   -1.8450 c3        1 MOL     -0.058480
     26 C12        -0.7180    8.4400   -2.9870 c3        1 MOL      0.068436
     27 N3         -1.5070    7.4590   -3.7570 n4        1 MOL     -0.374537
     28 H8          1.1300    3.6690   -1.0520 hn        1 MOL      0.311631
     29 H9          3.4570    5.3250   -1.6770 h1        1 MOL      0.104681
     30 H10         2.2830    7.1220   -0.6700 hc        1 MOL      0.025945
     31 H11         1.0120    6.1200   -0.0690 hc        1 MOL      0.025945
     32 H12         0.1210    5.6390   -2.2870 hc        1 MOL     -0.069641
     33 H13         1.4150    6.5730   -3.0320 hc        1 MOL     -0.069641
     34 H14         0.8240    8.6060   -1.5730 hc        1 MOL      0.028971
     35 H15        -0.5240    7.6720   -0.9670 hc        1 MOL      0.028971
     36 H16        -0.0600    8.9940   -3.6540 hx        1 MOL      0.067936
     37 H17        -1.4140    9.2000   -2.6550 hx        1 MOL      0.067936
     38 H18        -1.0600    6.6340   -4.1170 hn        1 MOL      0.329028
     39 H19        -2.3130    7.1640   -3.2190 hn        1 MOL      0.329028
     40 H20        -1.8950    8.0550   -4.4790 hn        1 MOL      0.329028
     41 N4          3.8630    3.9620    1.0990 n         1 MOL     -0.260686
     42 C13         4.8360    3.7180    2.1720 c3        1 MOL     -0.159027
     43 C14         6.0350    2.8220    1.8640 c         1 MOL      0.453636
     44 O6          6.9030    2.7450    2.7540 o         1 MOL     -0.521306
     45 C15         4.1990    3.2770    3.5080 c3        1 MOL     -0.134104
     46 C16         3.1900    2.1720    3.3980 c         1 MOL      0.802737
     47 O7          2.9780    1.4960    2.3770 o         1 MOL     -0.738420
     48 O8          2.5150    2.0290    4.4090 o         1 MOL     -0.738420
     49 H21         3.2360    3.1730    0.9760 hn        1 MOL      0.173945
     50 H22         5.2660    4.6980    2.3840 h1        1 MOL      0.129367
     51 H23         3.7060    4.0830    4.0540 hc        1 MOL      0.056212
     52 H24         4.9770    2.9890    4.2050 hc        1 MOL      0.056212
     53 N5          6.1250    2.2170    0.6920 n         1 MOL     -0.070283
     54 C17         7.3440    1.5770    0.1480 c3        1 MOL     -0.396748
     55 C18         7.6510    0.2910    0.9540 c         1 MOL      0.647732
     56 O9          8.7840    0.1110    1.4720 o         1 MOL     -0.576414
     57 H25         5.3570    2.1580    0.0410 hn        1 MOL      0.178530
     58 H26         8.1980    2.2350    0.2580 h1        1 MOL      0.155654
     59 H27         7.1470    1.2760   -0.8820 h1        1 MOL      0.155654
     60 N6          6.7470   -0.7040    0.9070 n         1 MOL     -0.330750
     61 C19         6.9060   -2.0250    1.6400 c3        1 MOL      0.079867
     62 C20         6.9620   -3.2660    0.6900 c         1 MOL      0.327141
     63 O10         7.3670   -4.4010    1.0850 o         1 MOL     -0.509162
     64 C21         5.9240   -2.3410    2.8420 c3        1 MOL     -0.153921
     65 C22         4.4430   -2.0280    2.4990 c         1 MOL      0.793775
     66 O11         4.0070   -2.4010    1.4110 o         1 MOL     -0.734165
     67 O12         3.6520   -1.5560    3.3400 o         1 MOL     -0.734165
     68 H28         5.8700   -0.5670    0.4260 hn        1 MOL      0.047478
     69 H29         7.8990   -2.0240    2.0880 h1        1 MOL      0.090447
     70 H30         6.1810   -1.8090    3.7580 hc        1 MOL      0.054701
     71 H31         5.9740   -3.3960    3.1250 hc        1 MOL      0.054701
     72 N7          6.4670   -3.0380   -0.5530 n         1 MOL     -0.251721
     73 C23         6.4060   -4.0940   -1.6120 c3        1 MOL      0.027665
     74 C24         5.0170   -4.6350   -1.9680 c         1 MOL      0.484790
     75 O13         4.9190   -5.6070   -2.7490 o         1 MOL     -0.557469
     76 H32         6.2470   -2.0880   -0.8120 hn        1 MOL      0.247455
     77 H33         7.1290   -4.8680   -1.3720 h1        1 MOL      0.051488
     78 H34         6.7580   -3.6370   -2.5430 h1        1 MOL      0.051488
     79 N8          3.9820   -4.1240   -1.2050 n         1 MOL     -0.279349
     80 C25         2.5540   -4.6230   -1.2290 c3        1 MOL     -0.178842
     81 C26         1.4880   -3.4950   -1.0670 c         1 MOL      0.573564
     82 O14         1.6300   -2.4270   -0.4890 o         1 MOL     -0.625344
     83 C27         2.3450   -5.7070   -0.1080 c3        1 MOL      0.442014
     84 C28         2.8930   -7.0650   -0.4280 c3        1 MOL     -0.441821
     85 O15         2.7790   -5.2400    1.2220 oh        1 MOL     -0.606202
     86 H35         4.2000   -3.2450   -0.7480 hn        1 MOL      0.257164
     87 H36         2.3320   -5.1020   -2.1830 h1        1 MOL      0.096992
     88 H37         1.2840   -5.9180    0.0010 h1        1 MOL     -0.025783
     89 H38         2.8480   -4.2760    1.1900 ho        1 MOL      0.394159
     90 H39         2.6460   -7.4450   -1.4270 hc        1 MOL      0.121736
     91 H40         3.9760   -7.0270   -0.3430 hc        1 MOL      0.121736
     92 H41         2.4280   -7.7600    0.2610 hc        1 MOL      0.121736
     93 N9          0.3890   -3.8610   -1.6570 n         1 MOL     -0.523508
     94 C29        -0.7800   -3.0400   -1.8100 c3        1 MOL      0.032688
     95 C30        -1.9660   -3.7040   -1.1660 c         1 MOL      0.536660
     96 O16        -2.1580   -4.9250   -1.2770 o         1 MOL     -0.548953
     97 C31        -0.9590   -2.7130   -3.3500 c3        1 MOL      0.204458
     98 C32         0.1360   -1.8010   -3.9350 c3        1 MOL      0.032584
     99 C33        -2.3350   -2.1200   -3.4960 c3        1 MOL     -0.489668
    100 C34         0.1890   -1.9370   -5.4500 c3        1 MOL     -0.162476
    101 H42         0.3160   -4.8300   -1.9430 hn        1 MOL      0.294400
    102 H43        -0.5860   -2.0780   -1.3280 h1        1 MOL      0.061235
    103 H44        -0.8830   -3.7000   -3.7990 hc        1 MOL      0.013652
    104 H45         1.1310   -2.0940   -3.6260 hc        1 MOL      0.052360
    105 H46        -0.1530   -0.7980   -3.6380 hc        1 MOL      0.052360
    106 H47        -2.3290   -1.5570   -4.4210 hc        1 MOL      0.091762
    107 H48        -3.0330   -2.9640   -3.4830 hc        1 MOL      0.091762
    108 H49        -2.6250   -1.3690   -2.7560 hc        1 MOL      0.091762
    109 H50        -0.8080   -1.8170   -5.8750 hc        1 MOL      0.033784
    110 H51         0.8900   -1.2360   -5.9200 hc        1 MOL      0.033784
    111 H52         0.5410   -2.9560   -5.6420 hc        1 MOL      0.033784
    112 N10        -2.7350   -2.9240   -0.3660 n         1 MOL     -0.242485
    113 C35        -3.9870   -3.3380    0.2990 c3        1 MOL      0.018697
    114 C36        -5.2760   -2.7850   -0.2860 c         1 MOL      0.368799
    115 O17        -5.2470   -1.8900   -1.1740 o         1 MOL     -0.437352
    116 C37        -3.9210   -2.7170    1.6740 c3        1 MOL      0.223885
    117 C38        -2.8830   -3.2920    2.6190 c3        1 MOL     -0.318053
    118 O18        -3.7550   -1.3280    1.8560 oh        1 MOL     -0.596744
    119 H53        -2.5520   -1.9330   -0.3000 hn        1 MOL      0.246806
    120 H54        -4.1640   -4.4090    0.3510 h1        1 MOL      0.067058
    121 H55        -4.7910   -2.9600    2.2770 h1        1 MOL      0.048854
    122 H56        -2.8080   -1.2040    1.7800 ho        1 MOL      0.376307
    123 H57        -2.5530   -2.5720    3.3630 hc        1 MOL      0.078166
    124 H58        -3.3560   -4.1770    3.0350 hc        1 MOL      0.078166
    125 H59        -1.9860   -3.6270    2.1010 hc        1 MOL      0.078166
    126 N11        -6.4160   -3.1270    0.3220 n         1 MOL     -0.230129
    127 C39        -7.7450   -2.6620   -0.1090 c3        1 MOL     -0.204300
    128 C40        -7.8930   -1.1180    0.0610 c         1 MOL      0.428842
    129 O19        -8.3790   -0.4660   -0.8750 o         1 MOL     -0.492643
    130 C41        -8.8780   -3.3250    0.7240 c3        1 MOL      0.359433
    131 C42        -9.2950   -4.6700    0.2490 c3        1 MOL     -0.421661
    132 O20        -8.5040   -3.4300    2.0510 oh        1 MOL     -0.643549
    133 H60        -6.4160   -3.8520    1.0220 hn        1 MOL      0.255433
    134 H61        -7.8760   -2.8650   -1.1750 h1        1 MOL      0.162795
    135 H62        -9.7680   -2.7040    0.6320 h1        1 MOL      0.028185
    136 H63        -9.3350   -3.5860    2.5010 ho        1 MOL      0.422360
    137 H64        -9.5540   -4.6260   -0.8120 hc        1 MOL      0.115423
    138 H65        -8.4760   -5.3800    0.3370 hc        1 MOL      0.115423
    139 H66       -10.0900   -4.9190    0.9510 hc        1 MOL      0.115423
    140 N12        -7.2940   -0.5410    1.1020 n         1 MOL     -0.380465
    141 C43        -7.2470    0.8880    1.3620 c3        1 MOL      0.181855
    142 C44        -6.3800    1.5660    0.3920 c         1 MOL      0.260350
    143 O21        -6.7990    2.5110   -0.1740 o         1 MOL     -0.489173
    144 C45        -6.8230    1.0760    2.8320 c3        1 MOL     -0.130160
    145 C46        -6.3280    2.5070    3.1670 c3        1 MOL      0.117505
    146 C47        -6.0930    2.7780    4.6860 c3        1 MOL     -0.054285
    147 C48        -5.5950    4.2300    4.8720 c3        1 MOL      0.061975
    148 N13        -5.1590    4.4150    6.2920 n4        1 MOL     -0.447786
    149 H67        -6.7500   -1.1090    1.7320 hn        1 MOL      0.229688
    150 H68        -8.2190    1.3730    1.2560 h1        1 MOL      0.082431
    151 H69        -5.9470    0.4500    2.9620 hc        1 MOL      0.030027
    152 H70        -7.6330    0.7970    3.4950 hc        1 MOL      0.030027
    153 H71        -6.9350    3.2880    2.7250 hc        1 MOL     -0.024782
    154 H72        -5.3840    2.5940    2.6340 hc        1 MOL     -0.024782
    155 H73        -5.4160    2.0210    5.0890 hc        1 MOL      0.044280
    156 H74        -7.0690    2.6640    5.1390 hc        1 MOL      0.044280
    157 H75        -6.4450    4.8380    4.5570 hx        1 MOL      0.091533
    158 H76        -4.7620    4.4310    4.2070 hx        1 MOL      0.091533
    159 H77        -5.8890    4.5760    6.9670 hn        1 MOL      0.335217
    160 H78        -4.5570    3.6710    6.6180 hn        1 MOL      0.335217
    161 H79        -4.4890    5.1760    6.2600 hn        1 MOL      0.335217
    162 N14        -5.1070    1.1360    0.1290 n         1 MOL     -0.012487
    163 C49        -4.1410    1.7450   -0.8650 c3        1 MOL     -0.157687
    164 C50        -4.6030    1.7140   -2.2980 c         1 MOL      0.415006
    165 O22        -4.2850    2.5970   -3.0790 o         1 MOL     -0.580640
    166 C51        -2.8490    0.9410   -0.8190 c3        1 MOL      0.045506
    167 C52        -2.0760    1.3420    0.4300 c3        1 MOL     -0.242686
    168 C53        -1.0000    0.3680    0.7080 c         1 MOL      0.679480
    169 O23         0.1900    0.8130    0.5450 o         1 MOL     -0.689229
    170 O24        -1.1890   -0.8660    1.0450 o         1 MOL     -0.689229
    171 H80        -4.7470    0.3820    0.6950 hn        1 MOL      0.165884
    172 H81        -3.8590    2.7690   -0.6080 h1        1 MOL      0.098077
    173 H82        -2.1580    1.1550   -1.6400 hc        1 MOL      0.076516
    174 H83        -3.0650   -0.1320   -0.8120 hc        1 MOL      0.076516
    175 H84        -2.7870    1.3090    1.2540 hc        1 MOL      0.049044
    176 H85        -1.7200    2.3580    0.2530 hc        1 MOL      0.049044
    177 N15        -5.4430    0.7920   -2.6520 n         1 MOL      0.011772
    178 C54        -6.2900    0.8390   -3.8630 c3        1 MOL     -0.364651
    179 H86        -5.6820    0.6170   -4.7400 h1        1 MOL      0.132007
    180 H87        -7.0870    0.1000   -3.7790 h1        1 MOL      0.132007
    181 H88        -6.7240    1.8340   -3.9660 h1        1 MOL      0.132007
    182 H89        -5.5140    0.0110   -2.0110 hn        1 MOL      0.128432
    183 Ca1         1.9750   -0.7300    1.4380 Ca        1 MOL      1.744143
    184 O25         0.3350   -2.5320    2.5850 oh        1 MOL     -0.843471
    185 H90        -0.0010   -3.2370    3.1420 ho        1 MOL      0.395293
    186 H91        -0.4590   -2.0840    2.2750 ho        1 MOL      0.395293
    187 O26         0.6150    0.2340    3.6370 oh        1 MOL     -0.843471
    188 H92         1.0800    1.0270    3.9080 ho        1 MOL      0.395293
    189 H93         0.3960   -0.2060    4.4520 ho        1 MOL      0.395293
@<TRIPOS>BOND
     1    1    2 1   
     2    1    4 1   
     3    1    5 1   
     4    1    6 1   
     5    2    3 2   
     6    2    7 1   
     7    7    8 1   
     8    7   15 1   
     9    8    9 1   
    10    8   11 1   
    11    8   16 1   
    12    9   10 2   
    13    9   19 1   
    14   11   12 1   
    15   11   17 1   
    16   11   18 1   
    17   12   13 1   
    18   12   14 1   
    19   19   20 1   
    20   19   28 1   
    21   20   21 1   
    22   20   23 1   
    23   20   29 1   
    24   21   22 2   
    25   21   41 1   
    26   23   24 1   
    27   23   30 1   
    28   23   31 1   
    29   24   25 1   
    30   24   32 1   
    31   24   33 1   
    32   25   26 1   
    33   25   34 1   
    34   25   35 1   
    35   26   27 1   
    36   26   36 1   
    37   26   37 1   
    38   27   38 1   
    39   27   39 1   
    40   27   40 1   
    41   41   42 1   
    42   41   49 1   
    43   42   43 1   
    44   42   45 1   
    45   42   50 1   
    46   43   44 2   
    47   43   53 1   
    48   45   46 1   
    49   45   51 1   
    50   45   52 1   
    51   46   47 1   
    52   46   48 1   
    53   53   54 1   
    54   53   57 1   
    55   54   55 1   
    56   54   58 1   
    57   54   59 1   
    58   55   56 2   
    59   55   60 1   
    60   60   61 1   
    61   60   68 1   
    62   61   62 1   
    63   61   64 1   
    64   61   69 1   
    65   62   63 2   
    66   62   72 1   
    67   64   65 1   
    68   64   70 1   
    69   64   71 1   
    70   65   66 1   
    71   65   67 1   
    72   72   73 1   
    73   72   76 1   
    74   73   74 1   
    75   73   77 1   
    76   73   78 1   
    77   74   75 2   
    78   74   79 1   
    79   79   80 1   
    80   79   86 1   
    81   80   81 1   
    82   80   83 1   
    83   80   87 1   
    84   81   82 2   
    85   81   93 1   
    86   83   84 1   
    87   83   85 1   
    88   83   88 1   
    89   84   90 1   
    90   84   91 1   
    91   84   92 1   
    92   85   89 1   
    93   93   94 1   
    94   93  101 1   
    95   94   95 1   
    96   94   97 1   
    97   94  102 1   
    98   95   96 2   
    99   95  112 1   
   100   97   98 1   
   101   97   99 1   
   102   97  103 1   
   103   98  100 1   
   104   98  104 1   
   105   98  105 1   
   106   99  106 1   
   107   99  107 1   
   108   99  108 1   
   109  100  109 1   
   110  100  110 1   
   111  100  111 1   
   112  112  113 1   
   113  112  119 1   
   114  113  114 1   
   115  113  116 1   
   116  113  120 1   
   117  114  115 2   
   118  114  126 1   
   119  116  117 1   
   120  116  118 1   
   121  116  121 1   
   122  117  123 1   
   123  117  124 1   
   124  117  125 1   
   125  118  122 1   
   126  126  127 1   
   127  126  133 1   
   128  127  128 1   
   129  127  130 1   
   130  127  134 1   
   131  128  129 2   
   132  128  140 1   
   133  130  131 1   
   134  130  132 1   
   135  130  135 1   
   136  131  137 1   
   137  131  138 1   
   138  131  139 1   
   139  132  136 1   
   140  140  141 1   
   141  140  149 1   
   142  141  142 1   
   143  141  144 1   
   144  141  150 1   
   145  142  143 2   
   146  142  162 1   
   147  144  145 1   
   148  144  151 1   
   149  144  152 1   
   150  145  146 1   
   151  145  153 1   
   152  145  154 1   
   153  146  147 1   
   154  146  155 1   
   155  146  156 1   
   156  147  148 1   
   157  147  157 1   
   158  147  158 1   
   159  148  159 1   
   160  148  160 1   
   161  148  161 1   
   162  162  163 1   
   163  162  171 1   
   164  163  164 1   
   165  163  166 1   
   166  163  172 1   
   167  164  165 2   
   168  164  177 1   
   169  166  167 1   
   170  166  173 1   
   171  166  174 1   
   172  167  168 1   
   173  167  175 1   
   174  167  176 1   
   175  168  169 1   
   176  168  170 1   
   177  177  178 1   
   178  177  182 1   
   179  178  179 1   
   180  178  180 1   
   181  178  181 1   
   182  184  185 1   
   183  184  186 1   
   184  187  188 1   
   185  187  189 1   
@<TRIPOS>SUBSTRUCTURE
     1 MOL         1 TEMP              0 ****  ****    0 ROOT
