@<TRIPOS>MOLECULE
MOL
  183   181     1     0     0
SMALL
resp


@<TRIPOS>ATOM
      1 C1         -0.1470    2.1210    6.2680 c3        1 MOL     -0.386759
      2 C2         -0.4500    1.8620    4.8050 c         1 MOL      0.810238
      3 O1          0.2750    2.4170    3.9470 o         1 MOL     -0.610803
      4 H1          0.6560    1.4600    6.5950 hc        1 MOL      0.090593
      5 H2          0.1610    3.1580    6.3980 hc        1 MOL      0.090593
      6 H3         -1.0390    1.9280    6.8640 hc        1 MOL      0.090593
      7 N1         -1.6110    1.2770    4.4570 n         1 MOL     -0.643285
      8 C3         -2.1370    1.2700    3.1260 c3        1 MOL      0.299220
      9 C4         -2.7950    2.6440    2.7790 c         1 MOL      0.477318
     10 O2         -3.4680    3.2510    3.6300 o         1 MOL     -0.583340
     11 C5         -3.2240    0.1220    3.0770 c3        1 MOL     -0.112369
     12 C6         -4.0360    0.0650    1.8240 c         1 MOL      0.656965
     13 O3         -5.2370   -0.2530    1.8500 o         1 MOL     -0.620730
     14 O4         -3.5010    0.4730    0.7680 o         1 MOL     -0.620730
     15 H4         -2.1970    0.7080    5.0540 hn        1 MOL      0.307039
     16 H5         -1.3780    1.1090    2.3590 h1        1 MOL     -0.039057
     17 H6         -3.9240    0.2510    3.9100 hc        1 MOL     -0.014381
     18 H7         -2.7440   -0.8490    3.1750 hc        1 MOL     -0.014381
     19 N2         -2.5900    3.1340    1.5410 n         1 MOL     -0.306808
     20 C7         -2.9430    4.5030    1.0600 c3        1 MOL      0.006732
     21 C8         -4.1670    4.4720    0.1570 c         1 MOL      0.585901
     22 O5         -4.9480    5.3710    0.2870 o         1 MOL     -0.626350
     23 C9         -1.7940    5.2230    0.3390 c3        1 MOL      0.216691
     24 C10        -0.5300    5.0190    1.2550 c3        1 MOL     -0.132216
     25 C11        -2.0670    6.7030    0.1350 c3        1 MOL     -0.107565
     26 C12         0.7270    5.7030    0.7650 c3        1 MOL     -0.095027
     27 H8         -2.1500    2.5120    0.8760 hn        1 MOL      0.138256
     28 H9         -3.1660    5.1600    1.8910 h1        1 MOL      0.043427
     29 H10        -1.7540    4.6980   -0.6210 hc        1 MOL     -0.026297
     30 H11        -0.2450    3.9710    1.3250 hc        1 MOL      0.068869
     31 H12        -0.7550    5.2940    2.2840 hc        1 MOL      0.068869
     32 H13        -1.2110    7.2460   -0.2740 hc        1 MOL      0.005874
     33 H14        -2.8960    6.9170   -0.5370 hc        1 MOL      0.005874
     34 H15        -2.2920    7.1310    1.1170 hc        1 MOL      0.005874
     35 H16         1.5900    5.3160    1.3040 hc        1 MOL      0.019772
     36 H17         0.9260    5.7550   -0.3100 hc        1 MOL      0.019772
     37 H18         0.7380    6.7040    1.1850 hc        1 MOL      0.019772
     38 N3         -4.4130    3.4170   -0.5750 n         1 MOL     -0.297726
     39 C13        -5.4470    3.4270   -1.6410 c3        1 MOL      0.075256
     40 C14        -6.6320    2.5280   -1.3830 c         1 MOL      0.435440
     41 O6         -7.4580    2.3530   -2.3280 o         1 MOL     -0.546236
     42 C15        -4.9100    3.2990   -3.1090 c3        1 MOL     -0.211589
     43 C16        -3.7940    2.2150   -3.2660 c         1 MOL      0.815911
     44 O7         -3.0230    2.2790   -4.2510 o         1 MOL     -0.705201
     45 O8         -3.6480    1.3300   -2.3630 o         1 MOL     -0.705201
     46 H19        -3.9260    2.5460   -0.4360 hn        1 MOL      0.154279
     47 H20        -5.9620    4.3840   -1.6000 h1        1 MOL      0.072144
     48 H21        -4.3820    4.2330   -3.2920 hc        1 MOL      0.040449
     49 H22        -5.6620    3.1850   -3.8940 hc        1 MOL      0.040449
     50 N4         -6.7850    1.9820   -0.1890 n         1 MOL     -0.264633
     51 C17        -8.0000    1.4320    0.3180 c3        1 MOL     -0.257175
     52 C18        -8.3510    0.0360   -0.1690 c         1 MOL      0.515751
     53 O9         -9.4990   -0.4240   -0.0590 o         1 MOL     -0.605134
     54 H23        -5.9910    2.0790    0.4130 hn        1 MOL      0.253823
     55 H24        -8.8340    2.1170    0.1840 h1        1 MOL      0.122957
     56 H25        -7.8200    1.2400    1.3800 h1        1 MOL      0.122957
     57 N5         -7.3360   -0.6630   -0.7210 n         1 MOL     -0.168705
     58 C19        -7.4260   -2.0390   -1.3430 c3        1 MOL      0.013527
     59 C20        -7.1400   -3.0570   -0.1390 c         1 MOL      0.430409
     60 O10        -7.5910   -4.1610   -0.1570 o         1 MOL     -0.561737
     61 C21        -6.4170   -2.1310   -2.5090 c3        1 MOL     -0.221113
     62 C22        -4.9730   -1.7240   -2.2140 c         1 MOL      0.809557
     63 O11        -4.1640   -1.5120   -3.1000 o         1 MOL     -0.753461
     64 O12        -4.5720   -1.6670   -1.0140 o         1 MOL     -0.753461
     65 H26        -6.4140   -0.3590   -0.4550 hn        1 MOL      0.123094
     66 H27        -8.4750   -2.1890   -1.6080 h1        1 MOL      0.074162
     67 H28        -6.7320   -1.4300   -3.2820 hc        1 MOL      0.050135
     68 H29        -6.4270   -3.1590   -2.8590 hc        1 MOL      0.050135
     69 N6         -6.4950   -2.6170    0.9140 n         1 MOL     -0.087697
     70 C23        -6.2460   -3.4690    2.1160 c3        1 MOL     -0.080947
     71 C24        -4.9990   -4.3570    1.8720 c         1 MOL      0.481174
     72 O13        -5.0320   -5.5770    2.0670 o         1 MOL     -0.574371
     73 H30        -6.2080   -1.6640    1.0230 hn        1 MOL      0.148696
     74 H31        -7.1600   -4.0160    2.3820 h1        1 MOL      0.041733
     75 H32        -6.0770   -2.7530    2.9140 h1        1 MOL      0.041733
     76 N7         -3.8960   -3.8070    1.4180 n         1 MOL      0.005845
     77 C25        -2.5270   -4.2540    1.5060 c3        1 MOL     -0.149847
     78 C26        -1.4720   -3.1260    1.4270 c         1 MOL      0.504057
     79 O14        -1.6910   -2.0590    0.8180 o         1 MOL     -0.621747
     80 C27        -2.2450   -5.3110    0.3890 c3        1 MOL     -0.046359
     81 C28        -2.6760   -5.0750   -1.0480 c3        1 MOL     -0.145868
     82 C29        -1.6750   -4.1990   -1.7620 c         1 MOL      0.436315
     83 N8         -0.6820   -4.8110   -2.2660 n         1 MOL     -0.571833
     84 O15        -1.7620   -2.9900   -1.8410 o         1 MOL     -0.488297
     85 H33        -4.0060   -2.8770    1.0350 hn        1 MOL      0.055029
     86 H34        -2.3660   -4.7140    2.4840 h1        1 MOL      0.032447
     87 H35        -2.8760   -6.1570    0.6640 hc        1 MOL      0.017885
     88 H36        -1.1890   -5.5710    0.4580 hc        1 MOL      0.017885
     89 H37        -3.6920   -4.6810   -1.0230 hc        1 MOL      0.085689
     90 H38        -2.7570   -6.0470   -1.5540 hc        1 MOL      0.085689
     91 H39        -0.7380   -5.8170   -2.3960 hn        1 MOL      0.300953
     92 H40        -0.0070   -4.2000   -2.7080 hn        1 MOL      0.300953
     93 N9         -0.3080   -3.3170    2.0100 n         1 MOL     -0.194750
     94 C30         0.8390   -2.4080    2.0410 c3        1 MOL     -0.002857
     95 C31         1.9630   -2.8600    1.0790 c         1 MOL      0.331706
     96 O16         2.6650   -3.7770    1.4030 o         1 MOL     -0.566037
     97 C32         1.4280   -2.3300    3.5170 c3        1 MOL      0.115146
     98 C33         2.5330   -1.2170    3.7240 c3        1 MOL     -0.162422
     99 C34         0.2080   -2.0010    4.3960 c3        1 MOL     -0.162422
    100 H41        -0.1490   -4.2500    2.3530 hn        1 MOL      0.237365
    101 H42         0.5040   -1.4240    1.7270 h1        1 MOL      0.189305
    102 H43         1.8220   -3.3120    3.7690 hc        1 MOL     -0.002117
    103 H44         3.0360   -1.4090    4.6670 hc        1 MOL      0.020325
    104 H45         3.2670   -1.3440    2.9300 hc        1 MOL      0.020325
    105 H46         2.1740   -0.1860    3.6810 hc        1 MOL      0.020325
    106 H47        -0.4390   -1.2880    3.8780 hc        1 MOL      0.020325
    107 H48        -0.3160   -2.9320    4.6280 hc        1 MOL      0.020325
    108 H49         0.5370   -1.5440    5.3220 hc        1 MOL      0.020325
    109 N10         2.1030   -2.1770   -0.0280 n         1 MOL     -0.044833
    110 C35         3.1790   -2.4050   -1.0430 c3        1 MOL      0.021761
    111 C36         4.5290   -1.8370   -0.5210 c         1 MOL      0.412330
    112 O17         4.5330   -0.9130    0.3040 o         1 MOL     -0.244606
    113 C37         2.7480   -1.7200   -2.3150 c3        1 MOL     -0.264754
    114 C38         1.6590   -2.4100   -3.0260 c         1 MOL      0.684897
    115 N11         0.5580   -1.7400   -3.2570 n         1 MOL     -0.739479
    116 O18         1.7870   -3.6290   -3.3140 o         1 MOL     -0.625000
    117 H50         1.3920   -1.4500   -0.0710 hn        1 MOL      0.039040
    118 H51         3.2670   -3.4910   -1.1690 h1        1 MOL      0.073042
    119 H52         3.5390   -1.7180   -3.0690 hc        1 MOL      0.069060
    120 H53         2.5110   -0.6690   -2.1350 hc        1 MOL      0.069060
    121 H54         0.4320   -0.8210   -2.8690 hn        1 MOL      0.362460
    122 H55        -0.2000   -2.2480   -3.6930 hn        1 MOL      0.362460
    123 N12         5.6970   -2.1550   -1.0690 n         1 MOL     -0.528569
    124 C39         6.9770   -1.5740   -0.5160 c3        1 MOL     -0.049934
    125 C40         6.9600   -0.0780   -0.5570 c         1 MOL      0.772994
    126 O19         7.4210    0.6090    0.3220 o         1 MOL     -0.546025
    127 C41         8.2130   -2.1170   -1.2880 c3        1 MOL      0.089016
    128 C42         9.5010   -1.6320   -0.7080 ca        1 MOL     -0.144589
    129 C43         9.9350   -2.2890    0.4390 ca        1 MOL     -0.114441
    130 C44        10.1620   -0.5080   -1.1420 ca        1 MOL     -0.114441
    131 C45        11.1290   -2.0030    1.1070 ca        1 MOL     -0.202896
    132 C46        11.3870   -0.1060   -0.5060 ca        1 MOL     -0.202896
    133 C47        11.8550   -0.8890    0.5530 ca        1 MOL      0.264549
    134 O20        12.9900   -0.6820    1.1830 oh        1 MOL     -0.463348
    135 H56         5.8070   -2.6170   -1.9590 hn        1 MOL      0.315029
    136 H57         7.1210   -1.8470    0.5260 h1        1 MOL      0.099757
    137 H58         8.1490   -1.9420   -2.3660 hc        1 MOL      0.011908
    138 H59         8.1970   -3.2080   -1.3070 hc        1 MOL      0.011908
    139 H60         9.4610   -3.2050    0.7450 ha        1 MOL      0.118425
    140 H61         9.7520    0.0480   -1.9680 ha        1 MOL      0.118425
    141 H62        11.4300   -2.6510    1.9240 ha        1 MOL      0.131196
    142 H63        12.0200    0.6980   -0.8410 ha        1 MOL      0.131196
    143 H64        13.5130   -0.0420    0.6980 ho        1 MOL      0.351662
    144 N13         6.4150    0.5280   -1.6540 n         1 MOL     -0.519421
    145 C48         6.2750    1.9440   -1.8870 c3        1 MOL     -0.012433
    146 C49         5.4340    2.5800   -0.7120 c         1 MOL      0.346712
    147 O21         5.7870    3.7190   -0.3100 o         1 MOL     -0.547403
    148 C50         5.5790    2.2240   -3.1820 c3        1 MOL     -0.154658
    149 C51         4.1050    1.8180   -3.3640 c3        1 MOL     -0.342246
    150 C52         3.4430    2.2240   -4.7230 c         1 MOL      0.749110
    151 O22         3.0460    3.3830   -4.8700 o         1 MOL     -0.733947
    152 O23         3.2210    1.3980   -5.6280 o         1 MOL     -0.733947
    153 H65         6.0770   -0.0880   -2.3850 hn        1 MOL      0.275395
    154 H66         7.2620    2.4050   -1.8610 h1        1 MOL      0.076384
    155 H67         6.1870    1.9750   -4.0490 hc        1 MOL      0.081356
    156 H68         5.5160    3.3090   -3.2830 hc        1 MOL      0.081356
    157 H69         3.4990    2.3690   -2.6510 hc        1 MOL      0.096938
    158 H70         3.9300    0.7810   -3.0940 hc        1 MOL      0.096938
    159 N14         4.4860    1.9140   -0.0900 n         1 MOL     -0.058178
    160 C53         3.6620    2.2790    1.0800 c3        1 MOL     -0.090614
    161 C54         4.4250    1.9830    2.4650 c         1 MOL      0.450651
    162 O24         4.3250    2.8450    3.3860 o         1 MOL     -0.550581
    163 C55         2.3240    1.5650    0.9800 c3        1 MOL      0.164915
    164 C56         1.5200    1.8880   -0.2550 c3        1 MOL     -0.115720
    165 C57         0.2270    1.0700   -0.4130 c         1 MOL      0.530512
    166 O25        -0.8880    1.5870   -0.5800 o         1 MOL     -0.623823
    167 O26         0.2220   -0.1420   -0.6580 o         1 MOL     -0.623823
    168 H71         4.3870    0.9620   -0.4110 hn        1 MOL      0.135573
    169 H72         3.3910    3.3330    1.0780 h1        1 MOL      0.075320
    170 H73         1.8020    1.8070    1.9100 hc        1 MOL     -0.000253
    171 H74         2.4820    0.4930    1.0240 hc        1 MOL     -0.000253
    172 H75         2.1740    1.6530   -1.0970 hc        1 MOL      0.062149
    173 H76         1.2830    2.9510   -0.2760 hc        1 MOL      0.062149
    174 N15         5.1990    0.8890    2.5560 n         1 MOL     -0.025094
    175 C58         6.0540    0.5610    3.6470 c3        1 MOL     -0.271008
    176 H77         6.6110   -0.3460    3.4120 h1        1 MOL      0.090391
    177 H78         6.7510    1.3800    3.8220 h1        1 MOL      0.090391
    178 H79         5.4530    0.3960    4.5420 h1        1 MOL      0.090391
    179 H80         5.1820    0.2370    1.7840 hn        1 MOL      0.035988
    180 Ca1        -2.2970   -0.4350   -1.2150 Ca        1 MOL      1.699325
    181 O27        -1.2600    0.4010   -3.7250 oh        1 MOL     -0.878259
    182 H81        -1.7810    1.1960   -3.9000 ho        1 MOL      0.417082
    183 H82        -0.9200    0.1520   -4.5830 ho        1 MOL      0.417082
@<TRIPOS>BOND
     1    1    2 1   
     2    1    4 1   
     3    1    5 1   
     4    1    6 1   
     5    2    3 2   
     6    2    7 1   
     7    7    8 1   
     8    7   15 1   
     9    8    9 1   
    10    8   11 1   
    11    8   16 1   
    12    9   10 2   
    13    9   19 1   
    14   11   12 1   
    15   11   17 1   
    16   11   18 1   
    17   12   13 1   
    18   12   14 1   
    19   19   20 1   
    20   19   27 1   
    21   20   21 1   
    22   20   23 1   
    23   20   28 1   
    24   21   22 2   
    25   21   38 1   
    26   23   24 1   
    27   23   25 1   
    28   23   29 1   
    29   24   26 1   
    30   24   30 1   
    31   24   31 1   
    32   25   32 1   
    33   25   33 1   
    34   25   34 1   
    35   26   35 1   
    36   26   36 1   
    37   26   37 1   
    38   38   39 1   
    39   38   46 1   
    40   39   40 1   
    41   39   42 1   
    42   39   47 1   
    43   40   41 2   
    44   40   50 1   
    45   42   43 1   
    46   42   48 1   
    47   42   49 1   
    48   43   44 1   
    49   43   45 1   
    50   50   51 1   
    51   50   54 1   
    52   51   52 1   
    53   51   55 1   
    54   51   56 1   
    55   52   53 2   
    56   52   57 1   
    57   57   58 1   
    58   57   65 1   
    59   58   59 1   
    60   58   61 1   
    61   58   66 1   
    62   59   60 2   
    63   59   69 1   
    64   61   62 1   
    65   61   67 1   
    66   61   68 1   
    67   62   63 1   
    68   62   64 1   
    69   69   70 1   
    70   69   73 1   
    71   70   71 1   
    72   70   74 1   
    73   70   75 1   
    74   71   72 2   
    75   71   76 1   
    76   76   77 1   
    77   76   85 1   
    78   77   78 1   
    79   77   80 1   
    80   77   86 1   
    81   78   79 2   
    82   78   93 1   
    83   80   81 1   
    84   80   87 1   
    85   80   88 1   
    86   81   82 1   
    87   81   89 1   
    88   81   90 1   
    89   82   83 1   
    90   82   84 2   
    91   83   91 1   
    92   83   92 1   
    93   93   94 1   
    94   93  100 1   
    95   94   95 1   
    96   94   97 1   
    97   94  101 1   
    98   95   96 2   
    99   95  109 1   
   100   97   98 1   
   101   97   99 1   
   102   97  102 1   
   103   98  103 1   
   104   98  104 1   
   105   98  105 1   
   106   99  106 1   
   107   99  107 1   
   108   99  108 1   
   109  109  110 1   
   110  109  117 1   
   111  110  111 1   
   112  110  113 1   
   113  110  118 1   
   114  111  112 2   
   115  111  123 1   
   116  113  114 1   
   117  113  119 1   
   118  113  120 1   
   119  114  115 1   
   120  114  116 2   
   121  115  121 1   
   122  115  122 1   
   123  123  124 1   
   124  123  135 1   
   125  124  125 1   
   126  124  127 1   
   127  124  136 1   
   128  125  126 2   
   129  125  144 1   
   130  127  128 1   
   131  127  137 1   
   132  127  138 1   
   133  128  129 ar  
   134  128  130 ar  
   135  129  131 ar  
   136  129  139 1   
   137  130  132 ar  
   138  130  140 1   
   139  131  133 ar  
   140  131  141 1   
   141  132  133 ar  
   142  132  142 1   
   143  133  134 1   
   144  134  143 1   
   145  144  145 1   
   146  144  153 1   
   147  145  146 1   
   148  145  148 1   
   149  145  154 1   
   150  146  147 2   
   151  146  159 1   
   152  148  149 1   
   153  148  155 1   
   154  148  156 1   
   155  149  150 1   
   156  149  157 1   
   157  149  158 1   
   158  150  151 1   
   159  150  152 1   
   160  159  160 1   
   161  159  168 1   
   162  160  161 1   
   163  160  163 1   
   164  160  169 1   
   165  161  162 2   
   166  161  174 1   
   167  163  164 1   
   168  163  170 1   
   169  163  171 1   
   170  164  165 1   
   171  164  172 1   
   172  164  173 1   
   173  165  166 1   
   174  165  167 1   
   175  174  175 1   
   176  174  179 1   
   177  175  176 1   
   178  175  177 1   
   179  175  178 1   
   180  181  182 1   
   181  181  183 1   
@<TRIPOS>SUBSTRUCTURE
     1 MOL         1 TEMP              0 ****  ****    0 ROOT
