@<TRIPOS>MOLECULE
MOL
  182   178     1     0     0
SMALL
resp


@<TRIPOS>ATOM
      1 C1          2.0670    2.1370    5.9150 c3        1 MOL     -0.348166
      2 C2          1.5130    2.0550    4.4820 c         1 MOL      0.739415
      3 O1          2.2250    2.3350    3.5010 o         1 MOL     -0.620109
      4 H1          2.8250    1.3670    6.0540 hc        1 MOL      0.090807
      5 H2          2.5120    3.1190    6.0770 hc        1 MOL      0.090807
      6 H3          1.2570    1.9810    6.6280 hc        1 MOL      0.090807
      7 N1          0.1820    1.8410    4.3520 n         1 MOL     -0.531915
      8 C3         -0.5170    1.9570    3.0360 c3        1 MOL      0.062063
      9 C4         -0.3880    3.3820    2.4540 c         1 MOL      0.422070
     10 O2         -0.7390    4.4010    3.0540 o         1 MOL     -0.560102
     11 C5         -2.0360    1.6080    3.1940 c3        1 MOL     -0.258697
     12 C6         -2.8800    1.4440    1.9490 c         1 MOL      0.778354
     13 O3         -4.0700    1.0660    2.0830 o         1 MOL     -0.691537
     14 O4         -2.2810    1.4970    0.8390 o         1 MOL     -0.691537
     15 H4         -0.3240    1.6550    5.2050 hn        1 MOL      0.318439
     16 H5         -0.0520    1.2360    2.3680 h1        1 MOL      0.014659
     17 H6         -2.5120    2.2650    3.9120 hc        1 MOL      0.084219
     18 H7         -2.0480    0.6850    3.7880 hc        1 MOL      0.084219
     19 N2          0.2650    3.4810    1.3420 n         1 MOL     -0.002523
     20 C7          0.7190    4.7520    0.6080 c3        1 MOL     -0.294517
     21 C8         -0.3850    5.3410   -0.2730 c         1 MOL      0.605419
     22 O5         -0.6010    6.5820   -0.1780 o         1 MOL     -0.552973
     23 C9          2.0390    4.3970   -0.1600 c3        1 MOL      0.130925
     24 C10         2.7220    5.6750   -0.5560 c3        1 MOL      0.026024
     25 C11         4.1140    5.3480   -1.1650 c3        1 MOL      0.052679
     26 C12         4.8580    6.4930   -1.7640 c3        1 MOL     -0.028924
     27 N3          6.2100    6.0380   -2.2640 n4        1 MOL     -0.420118
     28 H8          0.4850    2.5980    0.9130 hn        1 MOL      0.171113
     29 H9          0.9360    5.4870    1.3780 h1        1 MOL      0.156261
     30 H10         1.8040    3.8370   -1.0710 hc        1 MOL      0.004910
     31 H11         2.7060    3.8040    0.4520 hc        1 MOL      0.004910
     32 H12         2.7970    6.3160    0.3140 hc        1 MOL     -0.011399
     33 H13         2.1730    6.1540   -1.3700 hc        1 MOL     -0.011399
     34 H14         3.9900    4.5800   -1.9220 hc        1 MOL      0.027944
     35 H15         4.7200    4.9130   -0.3700 hc        1 MOL      0.027944
     36 H16         4.9100    7.1530   -0.8960 hx        1 MOL      0.107647
     37 H17         4.3300    7.0130   -2.5570 hx        1 MOL      0.107647
     38 H18         6.9390    5.6860   -1.6610 hn        1 MOL      0.341112
     39 H19         6.1020    5.2860   -2.9370 hn        1 MOL      0.341112
     40 H20         6.6880    6.8460   -2.6230 hn        1 MOL      0.341112
     41 N4         -1.0780    4.4980   -1.0040 n         1 MOL     -0.539005
     42 C13        -2.1890    4.8790   -1.9950 c3        1 MOL      0.306404
     43 C14        -3.5470    4.8930   -1.2610 c         1 MOL      0.381826
     44 O6         -4.3730    5.8230   -1.4250 o         1 MOL     -0.549660
     45 C15        -2.2300    4.0770   -3.3260 c3        1 MOL     -0.441287
     46 C16        -2.4980    2.5720   -3.2020 c         1 MOL      0.852209
     47 O7         -2.8550    2.0040   -4.2620 o         1 MOL     -0.722935
     48 O8         -2.4660    2.0150   -2.1230 o         1 MOL     -0.722935
     49 H21        -0.8680    3.5150   -0.8680 hn        1 MOL      0.325858
     50 H22        -2.1070    5.9160   -2.3120 h1        1 MOL      0.021247
     51 H23        -1.2370    4.1730   -3.7770 hc        1 MOL      0.105803
     52 H24        -3.0170    4.4430   -3.9850 hc        1 MOL      0.105803
     53 N5         -3.7390    3.8790   -0.4560 n         1 MOL     -0.035668
     54 C17        -4.9680    3.7510    0.4710 c3        1 MOL     -0.003855
     55 C18        -6.0190    2.7150   -0.0560 c         1 MOL      0.493026
     56 O9         -7.1890    3.0220   -0.1270 o         1 MOL     -0.574751
     57 H25        -3.0470    3.1520   -0.3480 hn        1 MOL     -0.009205
     58 H26        -5.5560    4.6520    0.6420 h1        1 MOL      0.045999
     59 H27        -4.5780    3.3230    1.3930 h1        1 MOL      0.045999
     60 N6         -5.5720    1.7140   -0.7110 n         1 MOL     -0.105409
     61 C19        -6.4440    0.6390   -1.2540 c3        1 MOL     -0.174843
     62 C20        -6.8790   -0.4300   -0.2100 c         1 MOL      0.549691
     63 O10        -7.5500   -1.3760   -0.5240 o         1 MOL     -0.536151
     64 C21        -5.7110    0.0530   -2.5230 c3        1 MOL     -0.230192
     65 C22        -4.6920   -1.0020   -2.2210 c         1 MOL      0.514077
     66 N7         -4.7130   -2.1120   -2.9180 n         1 MOL     -0.614356
     67 O11        -3.8680   -0.8890   -1.3590 o         1 MOL     -0.503305
     68 H28        -4.5840    1.5940   -0.8040 hn        1 MOL      0.076466
     69 H29        -7.3670    1.0110   -1.7030 h1        1 MOL      0.149964
     70 H30        -5.1480    0.8130   -3.0590 hc        1 MOL      0.112765
     71 H31        -6.4370   -0.3750   -3.2100 hc        1 MOL      0.112765
     72 H32        -5.3160   -2.1760   -3.7240 hn        1 MOL      0.316160
     73 H33        -4.2390   -2.8900   -2.4870 hn        1 MOL      0.316160
     74 N8         -6.4700   -0.1250    1.0420 n         1 MOL     -0.358248
     75 C23        -6.7600   -0.8480    2.2620 c3        1 MOL     -0.112294
     76 C24        -5.6670   -1.9200    2.5580 c         1 MOL      0.478576
     77 O12        -5.9060   -2.6370    3.5480 o         1 MOL     -0.551525
     78 H34        -5.7080    0.5400    1.1240 hn        1 MOL      0.303231
     79 H35        -7.7390   -1.3350    2.1830 h1        1 MOL      0.109521
     80 H36        -6.8880   -0.1640    3.0950 h1        1 MOL      0.109521
     81 N9         -4.5560   -2.0130    1.8110 n         1 MOL     -0.138292
     82 C25        -3.5450   -2.9680    2.0710 c3        1 MOL      0.002566
     83 C26        -2.1150   -2.5140    1.6620 c         1 MOL      0.720816
     84 O13        -1.8960   -1.5940    0.9200 o         1 MOL     -0.678316
     85 C27        -3.9230   -4.3650    1.5330 c3        1 MOL     -0.199536
     86 C28        -4.0490   -4.4620    0.0300 ca        1 MOL      0.105389
     87 C29        -2.8020   -4.5560   -0.6590 ca        1 MOL     -0.163733
     88 C30        -5.2550   -4.6740   -0.6540 ca        1 MOL     -0.163733
     89 C31        -2.8260   -4.8070   -2.0560 ca        1 MOL     -0.240034
     90 C32        -5.2650   -4.9910   -2.0670 ca        1 MOL     -0.240034
     91 C33        -4.0090   -5.0130   -2.7600 ca        1 MOL      0.253410
     92 O14        -4.0460   -5.2520   -4.0900 oh        1 MOL     -0.493347
     93 H37        -4.2960   -1.2070    1.2580 hn        1 MOL      0.114138
     94 H38        -3.5020   -3.0930    3.1460 h1        1 MOL      0.043668
     95 H39        -4.8270   -4.7110    2.0380 hc        1 MOL      0.081287
     96 H40        -3.1250   -5.0670    1.7310 hc        1 MOL      0.081287
     97 H41        -1.8720   -4.4290   -0.1240 ha        1 MOL      0.160085
     98 H42        -6.1380   -4.5790   -0.0330 ha        1 MOL      0.160085
     99 H43        -1.9040   -4.7580   -2.6150 ha        1 MOL      0.155572
    100 H44        -6.1420   -5.0850   -2.6790 ha        1 MOL      0.155572
    101 H45        -3.2070   -5.2440   -4.5630 ho        1 MOL      0.371004
    102 N10        -1.1040   -3.1780    2.2140 n         1 MOL     -0.574576
    103 C34         0.3300   -2.8950    2.0850 c3        1 MOL      0.090014
    104 C35         1.0410   -3.8470    1.1120 c         1 MOL      0.489567
    105 O15         0.6860   -5.0050    1.0410 o         1 MOL     -0.531126
    106 C36         0.9800   -2.8660    3.4620 c3        1 MOL      0.117012
    107 C37         0.2960   -1.8680    4.4450 c3        1 MOL      0.150320
    108 C38         2.5380   -2.6590    3.3420 c3        1 MOL     -0.284596
    109 C39         0.5830   -2.3060    5.9450 c3        1 MOL     -0.313231
    110 H46        -1.3190   -3.9750    2.7920 hn        1 MOL      0.296803
    111 H47         0.4820   -1.9250    1.6080 h1        1 MOL      0.071412
    112 H48         0.9220   -3.8640    3.9040 hc        1 MOL      0.018748
    113 H49        -0.7710   -1.7770    4.2880 hc        1 MOL     -0.028362
    114 H50         0.6600   -0.8460    4.3200 hc        1 MOL     -0.028362
    115 H51         2.7930   -1.7920    2.7300 hc        1 MOL      0.063393
    116 H52         3.0290   -2.5080    4.3140 hc        1 MOL      0.063393
    117 H53         3.0110   -3.5760    3.0130 hc        1 MOL      0.063393
    118 H54         0.1040   -1.6050    6.6310 hc        1 MOL      0.073289
    119 H55         0.2800   -3.3450    6.1100 hc        1 MOL      0.073289
    120 H56         1.6620   -2.2740    6.0540 hc        1 MOL      0.073289
    121 N11         2.0370   -3.3330    0.3470 n         1 MOL     -0.383403
    122 C40         2.8520   -3.9740   -0.5900 c3        1 MOL      0.204915
    123 C41         4.3830   -3.5060   -0.4550 c         1 MOL      0.538088
    124 O16         4.6530   -2.5030    0.1850 o         1 MOL     -0.579395
    125 C42         2.2600   -3.9170   -2.0360 c3        1 MOL      0.214589
    126 O17         3.2050   -4.1600   -3.0550 oh        1 MOL     -0.661942
    127 H57         2.2880   -2.3660    0.4820 hn        1 MOL      0.271619
    128 H58         3.0590   -5.0320   -0.3890 h1        1 MOL     -0.006793
    129 H59         2.0830   -2.8540   -2.2200 h1        1 MOL     -0.003096
    130 H60         1.3030   -4.4350   -2.0150 h1        1 MOL     -0.003096
    131 H61         2.7520   -4.0890   -3.8950 ho        1 MOL      0.415389
    132 N12         5.2310   -4.1700   -1.1730 n         1 MOL     -0.426999
    133 C43         6.6650   -4.0170   -0.9100 c3        1 MOL      0.075486
    134 C44         7.2090   -2.5860   -1.0790 c         1 MOL      0.490020
    135 O18         7.8950   -2.1050   -0.1640 o         1 MOL     -0.512148
    136 C45         7.3450   -5.1770   -1.7050 c3        1 MOL     -0.357927
    137 H62         4.9310   -4.8620   -1.8360 hn        1 MOL      0.300127
    138 H63         6.7500   -4.2110    0.1620 h1        1 MOL      0.115615
    139 H64         7.2520   -6.1050   -1.1450 hc        1 MOL      0.117267
    140 H65         6.9870   -5.3260   -2.7210 hc        1 MOL      0.117267
    141 H66         8.4300   -5.1170   -1.8020 hc        1 MOL      0.117267
    142 N13         6.9710   -1.8250   -2.1800 n         1 MOL     -0.435870
    143 C46         7.4830   -0.4650   -2.2960 c3        1 MOL      0.119042
    144 C47         6.8690    0.5360   -1.3290 c         1 MOL      0.444907
    145 O19         7.4650    1.5600   -1.1090 o         1 MOL     -0.542517
    146 C48         7.3800   -0.1160   -3.8510 c3        1 MOL     -0.292904
    147 H67         6.3770   -2.1260   -2.9390 hn        1 MOL      0.279437
    148 H68         8.5470   -0.4890   -2.0490 h1        1 MOL      0.102047
    149 H69         7.8700   -0.9060   -4.4360 hc        1 MOL      0.085949
    150 H70         6.3630    0.1290   -4.1670 hc        1 MOL      0.085949
    151 H71         8.0440    0.7440   -3.9650 hc        1 MOL      0.085949
    152 N14         5.7090    0.1940   -0.7340 n         1 MOL     -0.309436
    153 C49         5.2420    1.0760    0.3420 c3        1 MOL      0.001940
    154 C50         5.9910    0.7820    1.6500 c         1 MOL      0.624279
    155 O20         6.2630    1.6970    2.3960 o         1 MOL     -0.554944
    156 C51         3.7220    0.8790    0.5460 c3        1 MOL     -0.048705
    157 C52         2.9150    0.7210   -0.7640 c3        1 MOL     -0.181926
    158 C53         1.4900    0.3940   -0.3690 c         1 MOL      0.970967
    159 O21         0.6960    1.3350   -0.1700 o         1 MOL     -0.831393
    160 O22         1.0720   -0.7580   -0.6570 o         1 MOL     -0.831393
    161 H72         5.2330   -0.6780   -0.8840 hn        1 MOL      0.234522
    162 H73         5.4430    2.1180    0.1200 h1        1 MOL      0.031320
    163 H74         3.3640    1.7600    1.0600 hc        1 MOL      0.037222
    164 H75         3.4590    0.0850    1.2400 hc        1 MOL      0.037222
    165 H76         3.1920   -0.0760   -1.4580 hc        1 MOL      0.009549
    166 H77         2.9430    1.6640   -1.2980 hc        1 MOL      0.009549
    167 N15         6.4590   -0.4760    1.8250 n         1 MOL     -0.293121
    168 C54         7.2940   -0.7280    3.0070 c3        1 MOL     -0.307167
    169 H78         7.6200   -1.7690    3.0050 h1        1 MOL      0.122555
    170 H79         8.1660   -0.0750    2.9830 h1        1 MOL      0.122555
    171 H80         6.7160   -0.5310    3.9100 h1        1 MOL      0.122555
    172 H81         6.4420   -1.1780    1.1090 hn        1 MOL      0.260575
    173 Ca1        -1.3530    0.0390   -1.0620 Ca        1 MOL      1.756647
    174 O23         0.0730    0.9810   -3.2200 oh        1 MOL     -0.840918
    175 H82         0.5280    1.7670   -3.5320 ho        1 MOL      0.391145
    176 H83        -0.3040    0.5910   -4.0090 ho        1 MOL      0.391145
    177 O24        -0.5070   -2.4440   -1.5970 oh        1 MOL     -0.840918
    178 H84         0.2130   -2.0580   -1.0950 ho        1 MOL      0.391145
    179 H85        -0.0830   -2.8320   -2.3580 ho        1 MOL      0.391145
    180 O25        -2.0480   -0.5590   -3.7570 oh        1 MOL     -0.840918
    181 H86        -2.0980   -1.0190   -4.5990 ho        1 MOL      0.391145
    182 H87        -2.3640    0.3240   -3.9580 ho        1 MOL      0.391145
@<TRIPOS>BOND
     1    1    2 1   
     2    1    4 1   
     3    1    5 1   
     4    1    6 1   
     5    2    3 2   
     6    2    7 1   
     7    7    8 1   
     8    7   15 1   
     9    8    9 1   
    10    8   11 1   
    11    8   16 1   
    12    9   10 2   
    13    9   19 1   
    14   11   12 1   
    15   11   17 1   
    16   11   18 1   
    17   12   13 1   
    18   12   14 1   
    19   19   20 1   
    20   19   28 1   
    21   20   21 1   
    22   20   23 1   
    23   20   29 1   
    24   21   22 2   
    25   21   41 1   
    26   23   24 1   
    27   23   30 1   
    28   23   31 1   
    29   24   25 1   
    30   24   32 1   
    31   24   33 1   
    32   25   26 1   
    33   25   34 1   
    34   25   35 1   
    35   26   27 1   
    36   26   36 1   
    37   26   37 1   
    38   27   38 1   
    39   27   39 1   
    40   27   40 1   
    41   41   42 1   
    42   41   49 1   
    43   42   43 1   
    44   42   45 1   
    45   42   50 1   
    46   43   44 2   
    47   43   53 1   
    48   45   46 1   
    49   45   51 1   
    50   45   52 1   
    51   46   47 1   
    52   46   48 1   
    53   53   54 1   
    54   53   57 1   
    55   54   55 1   
    56   54   58 1   
    57   54   59 1   
    58   55   56 2   
    59   55   60 1   
    60   60   61 1   
    61   60   68 1   
    62   61   62 1   
    63   61   64 1   
    64   61   69 1   
    65   62   63 2   
    66   62   74 1   
    67   64   65 1   
    68   64   70 1   
    69   64   71 1   
    70   65   66 1   
    71   65   67 2   
    72   66   72 1   
    73   66   73 1   
    74   74   75 1   
    75   74   78 1   
    76   75   76 1   
    77   75   79 1   
    78   75   80 1   
    79   76   77 2   
    80   76   81 1   
    81   81   82 1   
    82   81   93 1   
    83   82   83 1   
    84   82   85 1   
    85   82   94 1   
    86   83   84 2   
    87   83  102 1   
    88   85   86 1   
    89   85   95 1   
    90   85   96 1   
    91   86   87 ar  
    92   86   88 ar  
    93   87   89 ar  
    94   87   97 1   
    95   88   90 ar  
    96   88   98 1   
    97   89   91 ar  
    98   89   99 1   
    99   90   91 ar  
   100   90  100 1   
   101   91   92 1   
   102   92  101 1   
   103  102  103 1   
   104  102  110 1   
   105  103  104 1   
   106  103  106 1   
   107  103  111 1   
   108  104  105 2   
   109  104  121 1   
   110  106  107 1   
   111  106  108 1   
   112  106  112 1   
   113  107  109 1   
   114  107  113 1   
   115  107  114 1   
   116  108  115 1   
   117  108  116 1   
   118  108  117 1   
   119  109  118 1   
   120  109  119 1   
   121  109  120 1   
   122  121  122 1   
   123  121  127 1   
   124  122  123 1   
   125  122  125 1   
   126  122  128 1   
   127  123  124 2   
   128  123  132 1   
   129  125  126 1   
   130  125  129 1   
   131  125  130 1   
   132  126  131 1   
   133  132  133 1   
   134  132  137 1   
   135  133  134 1   
   136  133  136 1   
   137  133  138 1   
   138  134  135 2   
   139  134  142 1   
   140  136  139 1   
   141  136  140 1   
   142  136  141 1   
   143  142  143 1   
   144  142  147 1   
   145  143  144 1   
   146  143  146 1   
   147  143  148 1   
   148  144  145 2   
   149  144  152 1   
   150  146  149 1   
   151  146  150 1   
   152  146  151 1   
   153  152  153 1   
   154  152  161 1   
   155  153  154 1   
   156  153  156 1   
   157  153  162 1   
   158  154  155 2   
   159  154  167 1   
   160  156  157 1   
   161  156  163 1   
   162  156  164 1   
   163  157  158 1   
   164  157  165 1   
   165  157  166 1   
   166  158  159 1   
   167  158  160 1   
   168  167  168 1   
   169  167  172 1   
   170  168  169 1   
   171  168  170 1   
   172  168  171 1   
   173  174  175 1   
   174  174  176 1   
   175  177  178 1   
   176  177  179 1   
   177  180  181 1   
   178  180  182 1   
@<TRIPOS>SUBSTRUCTURE
     1 MOL         1 TEMP              0 ****  ****    0 ROOT
