@<TRIPOS>MOLECULE
MOL
  189   185     1     0     0
SMALL
resp


@<TRIPOS>ATOM
      1 C1          0.7620    2.5340    4.9460 c3        1 MOL     -0.429489
      2 C2          0.2100    2.3980    3.5660 c         1 MOL      0.722020
      3 O1          0.8000    2.9470    2.5970 o         1 MOL     -0.615866
      4 H1          1.8410    2.6830    4.8920 hc        1 MOL      0.116018
      5 H2          0.3020    3.3900    5.4400 hc        1 MOL      0.116018
      6 H3          0.5480    1.6290    5.5140 hc        1 MOL      0.116018
      7 N1         -1.0070    1.8070    3.4660 n         1 MOL     -0.673872
      8 C3         -1.8960    1.6350    2.2650 c3        1 MOL      0.434317
      9 C4         -2.5560    2.9250    1.7420 c         1 MOL      0.197849
     10 O2         -3.6350    3.3570    2.1180 o         1 MOL     -0.487058
     11 C5         -2.9630    0.6290    2.6630 c3        1 MOL     -0.121373
     12 C6         -3.7370    0.1330    1.4920 c         1 MOL      0.636791
     13 O3         -4.7430   -0.5940    1.7190 o         1 MOL     -0.626077
     14 O4         -3.4140    0.4760    0.3400 o         1 MOL     -0.626077
     15 H4         -1.2600    1.2960    4.2970 hn        1 MOL      0.317150
     16 H5         -1.3970    1.1380    1.4340 h1        1 MOL     -0.153408
     17 H6         -3.6280    1.1080    3.3810 hc        1 MOL      0.026822
     18 H7         -2.5660   -0.2110    3.2320 hc        1 MOL      0.026822
     19 N2         -1.8740    3.6320    0.8810 n         1 MOL      0.017883
     20 C7         -2.2180    4.9650    0.3740 c3        1 MOL     -0.174217
     21 C8         -3.3880    4.9780   -0.6050 c         1 MOL      0.513057
     22 O5         -4.0360    6.0060   -0.8410 o         1 MOL     -0.593483
     23 C9         -0.9240    5.6310   -0.2320 c3        1 MOL     -0.051997
     24 C10         0.1310    5.9940    0.7550 c3        1 MOL      0.083811
     25 C11        -0.3780    6.5220    2.0760 c3        1 MOL     -0.127084
     26 C12         0.7050    7.1560    2.9160 c3        1 MOL      0.084795
     27 N3          0.2740    7.6680    4.2800 n4        1 MOL     -0.386461
     28 H8         -0.9970    3.2600    0.5290 hn        1 MOL      0.252539
     29 H9         -2.5310    5.6170    1.1870 h1        1 MOL      0.074189
     30 H10        -1.0770    6.5600   -0.7840 hc        1 MOL      0.029110
     31 H11        -0.5270    4.8540   -0.8910 hc        1 MOL      0.029110
     32 H12         0.7940    6.6760    0.2130 hc        1 MOL      0.006983
     33 H13         0.7850    5.1310    0.8640 hc        1 MOL      0.006983
     34 H14        -0.6420    5.6540    2.6810 hc        1 MOL      0.072099
     35 H15        -1.2670    7.1500    2.0080 hc        1 MOL      0.072099
     36 H16         1.1830    7.9210    2.2980 hx        1 MOL      0.060250
     37 H17         1.4220    6.3530    3.1000 hx        1 MOL      0.060250
     38 H18        -0.0900    7.0070    4.9380 hn        1 MOL      0.333807
     39 H19         1.0970    8.0140    4.7530 hn        1 MOL      0.333807
     40 H20        -0.4490    8.3440    4.0890 hn        1 MOL      0.333807
     41 N4         -3.7820    3.8560   -1.1370 n         1 MOL     -0.196275
     42 C13        -4.9860    3.6650   -2.0400 c3        1 MOL     -0.093018
     43 C14        -6.0290    2.6340   -1.5230 c         1 MOL      0.410256
     44 O6         -6.8930    2.2220   -2.2670 o         1 MOL     -0.471261
     45 C15        -4.5760    3.2380   -3.4560 c3        1 MOL     -0.103599
     46 C16        -3.4260    2.2410   -3.5600 c         1 MOL      0.744231
     47 O7         -2.6440    2.2980   -4.5820 o         1 MOL     -0.727603
     48 O8         -3.3040    1.3820   -2.6620 o         1 MOL     -0.727603
     49 H21        -3.2640    3.0370   -0.8580 hn        1 MOL      0.087108
     50 H22        -5.4430    4.6310   -2.2370 h1        1 MOL      0.138008
     51 H23        -4.2600    4.1150   -4.0250 hc        1 MOL      0.033350
     52 H24        -5.4580    2.8990   -3.9900 hc        1 MOL      0.033350
     53 N5         -5.9410    2.3120   -0.2390 n         1 MOL     -0.219327
     54 C17        -6.8650    1.5220    0.5510 c3        1 MOL     -0.130200
     55 C18        -7.3710    0.2020   -0.0590 c         1 MOL      0.473667
     56 O9         -8.5970   -0.0820   -0.0860 o         1 MOL     -0.577046
     57 H25        -5.1560    2.6700    0.2850 hn        1 MOL      0.202407
     58 H26        -7.8110    2.0770    0.5570 h1        1 MOL      0.083920
     59 H27        -6.5310    1.4290    1.5870 h1        1 MOL      0.083920
     60 N6         -6.5090   -0.5940   -0.6920 n         1 MOL     -0.192536
     61 C19        -6.8600   -1.9070   -1.3100 c3        1 MOL     -0.018400
     62 C20        -6.6360   -3.1490   -0.3350 c         1 MOL      0.385032
     63 O10        -7.0300   -4.3020   -0.5590 o         1 MOL     -0.527676
     64 C21        -6.0750   -2.1400   -2.5760 c3        1 MOL     -0.255903
     65 C22        -4.5320   -2.0310   -2.3190 c         1 MOL      0.829976
     66 O11        -3.8280   -1.5130   -3.1930 o         1 MOL     -0.754335
     67 O12        -4.0550   -2.3620   -1.2260 o         1 MOL     -0.754335
     68 H28        -5.6160   -0.1470   -0.7560 hn        1 MOL      0.246953
     69 H29        -7.9450   -1.8640   -1.3470 h1        1 MOL      0.123268
     70 H30        -6.4450   -1.4260   -3.3100 hc        1 MOL      0.076375
     71 H31        -6.3030   -3.1460   -2.9400 hc        1 MOL      0.076375
     72 N7         -6.1000   -2.8100    0.8460 n         1 MOL     -0.139544
     73 C23        -5.9390   -3.7150    1.9930 c3        1 MOL     -0.151729
     74 C24        -4.7220   -4.5850    1.9030 c         1 MOL      0.513223
     75 O13        -4.7830   -5.6590    2.4930 o         1 MOL     -0.567203
     76 H32        -5.6830   -1.8980    0.9470 hn        1 MOL      0.124069
     77 H33        -6.8280   -4.3370    2.0410 h1        1 MOL      0.088622
     78 H34        -5.9070   -3.1660    2.9320 h1        1 MOL      0.088622
     79 N8         -3.7460   -4.1850    1.0810 n         1 MOL     -0.142576
     80 C25        -2.4020   -4.7520    0.8850 c3        1 MOL     -0.329848
     81 C26        -1.3890   -3.5840    0.9540 c         1 MOL      0.570231
     82 O14        -1.4940   -2.4770    0.3940 o         1 MOL     -0.555600
     83 C27        -2.3580   -5.5490   -0.5100 c3        1 MOL      0.412815
     84 C28        -3.3220   -6.7700   -0.4630 c3        1 MOL     -0.336472
     85 O15        -2.9140   -4.8210   -1.6440 oh        1 MOL     -0.609392
     86 H35        -3.9480   -3.2800    0.6720 hn        1 MOL      0.190111
     87 H36        -2.2080   -5.4220    1.7190 h1        1 MOL      0.129611
     88 H37        -1.3450   -5.9000   -0.7180 h1        1 MOL      0.002858
     89 H38        -3.2950   -3.9950   -1.3300 ho        1 MOL      0.414623
     90 H39        -3.0950   -7.4800    0.3280 hc        1 MOL      0.087376
     91 H40        -4.3660   -6.4440   -0.5570 hc        1 MOL      0.087376
     92 H41        -3.1020   -7.2880   -1.4010 hc        1 MOL      0.087376
     93 N9         -0.3160   -3.8260    1.7600 n         1 MOL     -0.472245
     94 C29         0.8180   -2.9030    1.8800 c3        1 MOL     -0.019091
     95 C30         1.8990   -3.5510    0.9910 c         1 MOL      0.511276
     96 O16         2.1170   -4.7360    1.1320 o         1 MOL     -0.557151
     97 C31         1.2190   -2.5560    3.3340 c3        1 MOL      0.109764
     98 C32         0.1060   -1.7780    4.0540 c3        1 MOL      0.181045
     99 C33         2.5750   -1.7890    3.4850 c3        1 MOL     -0.111344
    100 C34         0.1240   -1.9900    5.4880 c3        1 MOL     -0.293019
    101 H42        -0.3200   -4.7310    2.1990 hn        1 MOL      0.304666
    102 H43         0.4990   -1.9200    1.5480 h1        1 MOL      0.079739
    103 H44         1.4140   -3.4840    3.8840 hc        1 MOL      0.017597
    104 H45        -0.8130   -2.1880    3.6540 hc        1 MOL     -0.021503
    105 H46         0.1620   -0.7710    3.6380 hc        1 MOL     -0.021503
    106 H47         2.8850   -1.5160    4.4870 hc        1 MOL      0.009055
    107 H48         3.3770   -2.4660    3.1960 hc        1 MOL      0.009055
    108 H49         2.5300   -0.8860    2.8830 hc        1 MOL      0.009055
    109 H50        -0.7050   -1.4360    5.9250 hc        1 MOL      0.058583
    110 H51         0.1500   -3.0670    5.5980 hc        1 MOL      0.058583
    111 H52         0.9780   -1.5410    6.0150 hc        1 MOL      0.058583
    112 N10         2.4590   -2.7500    0.1110 n         1 MOL     -0.106230
    113 C35         3.6880   -2.9870   -0.7080 c3        1 MOL     -0.152586
    114 C36         4.9570   -2.5940    0.0550 c         1 MOL      0.532300
    115 O17         4.9800   -1.9780    1.1120 o         1 MOL     -0.429643
    116 C37         3.6250   -2.2110   -2.0520 c3        1 MOL      0.164390
    117 C38         2.3430   -2.3780   -2.8120 c3        1 MOL     -0.346511
    118 O18         3.8910   -0.8040   -1.9310 oh        1 MOL     -0.420340
    119 H53         1.9840   -1.8570    0.0580 hn        1 MOL      0.072362
    120 H54         3.6840   -4.0360   -1.0180 h1        1 MOL      0.107206
    121 H55         4.4610   -2.5510   -2.6700 h1        1 MOL      0.036584
    122 H56         3.1740   -0.4060   -2.4310 ho        1 MOL      0.349761
    123 H57         1.7010   -1.5300   -2.5450 hc        1 MOL      0.113759
    124 H58         2.5790   -2.2000   -3.8640 hc        1 MOL      0.113759
    125 H59         1.8800   -3.3450   -2.6480 hc        1 MOL      0.113759
    126 N11         6.0510   -3.0620   -0.4780 n         1 MOL     -0.321469
    127 C39         7.4050   -2.7200   -0.0270 c3        1 MOL     -0.247476
    128 C40         7.6090   -1.2270   -0.0610 c         1 MOL      0.442865
    129 O19         8.3040   -0.6430    0.7890 o         1 MOL     -0.422135
    130 C41         8.3670   -3.5410   -0.9050 c3        1 MOL      0.495940
    131 C42         9.7560   -3.7490   -0.2670 c3        1 MOL     -0.402894
    132 O20         8.0240   -4.8780   -0.9480 oh        1 MOL     -0.582246
    133 H60         6.0280   -3.6530   -1.2930 hn        1 MOL      0.207031
    134 H61         7.5630   -3.0640    1.0010 h1        1 MOL      0.176459
    135 H62         8.4100   -3.2130   -1.9480 h1        1 MOL     -0.042911
    136 H63         7.3970   -5.0340   -1.6560 ho        1 MOL      0.374051
    137 H64        10.2920   -2.8050   -0.1900 hc        1 MOL      0.117306
    138 H65         9.5350   -4.1490    0.7190 hc        1 MOL      0.117306
    139 H66        10.3290   -4.4600   -0.8580 hc        1 MOL      0.117306
    140 N12         7.0430   -0.5960   -1.2110 n         1 MOL     -0.388056
    141 C43         7.0600    0.8680   -1.4990 c3        1 MOL     -0.063604
    142 C44         6.2870    1.6300   -0.4570 c         1 MOL      0.280135
    143 O21         6.7510    2.6460    0.0910 o         1 MOL     -0.500717
    144 C45         6.7660    1.2670   -2.9290 c3        1 MOL     -0.003521
    145 C46         6.8890    2.7540   -3.1660 c3        1 MOL      0.078561
    146 C47         6.5920    3.0420   -4.6180 c3        1 MOL     -0.126228
    147 C48         5.0580    2.7790   -4.9270 c3        1 MOL      0.009806
    148 N13         4.2920    4.0300   -5.0220 n4        1 MOL     -0.384965
    149 H67         6.6070   -1.1570   -1.9330 hn        1 MOL      0.251615
    150 H68         8.0370    1.2950   -1.2610 h1        1 MOL      0.122209
    151 H69         5.8160    0.8210   -3.2150 hc        1 MOL      0.016041
    152 H70         7.5700    0.8280   -3.5090 hc        1 MOL      0.016041
    153 H71         7.9100    3.0940   -2.9790 hc        1 MOL      0.026404
    154 H72         6.2270    3.3800   -2.5690 hc        1 MOL      0.026404
    155 H73         7.1260    2.4290   -5.3470 hc        1 MOL      0.068402
    156 H74         6.7880    4.1080   -4.6730 hc        1 MOL      0.068402
    157 H75         4.6070    2.2980   -4.0650 hx        1 MOL      0.095555
    158 H76         4.9370    2.1480   -5.8100 hx        1 MOL      0.095555
    159 H77         4.6320    4.6210   -5.7640 hn        1 MOL      0.340364
    160 H78         3.2990    3.8760   -5.0520 hn        1 MOL      0.340364
    161 H79         4.4030    4.6060   -4.1960 hn        1 MOL      0.340364
    162 N14         5.0560    1.1460   -0.1400 n         1 MOL     -0.040446
    163 C49         4.1770    1.7940    0.9050 c3        1 MOL     -0.145055
    164 C50         4.7070    1.6840    2.3420 c         1 MOL      0.419913
    165 O22         4.4500    2.5100    3.2510 o         1 MOL     -0.563737
    166 C51         2.8850    1.0000    0.8620 c3        1 MOL      0.203371
    167 C52         1.9990    1.5200   -0.3260 c3        1 MOL     -0.362830
    168 C53         0.6220    0.8510   -0.4100 c         1 MOL      0.853146
    169 O23         0.5600   -0.3670   -0.5690 o         1 MOL     -0.688590
    170 O24        -0.3600    1.5530   -0.7420 o         1 MOL     -0.688590
    171 H80         4.8000    0.2930   -0.6270 hn        1 MOL      0.016661
    172 H81         3.8950    2.8130    0.6560 h1        1 MOL      0.107985
    173 H82         2.3020    1.1540    1.7680 hc        1 MOL      0.014766
    174 H83         3.0350   -0.0750    0.8840 hc        1 MOL      0.014766
    175 H84         2.5090    1.2630   -1.2430 hc        1 MOL      0.041230
    176 H85         1.8820    2.5730   -0.0950 hc        1 MOL      0.041230
    177 N15         5.5720    0.6700    2.6060 n         1 MOL      0.019733
    178 C54         6.2760    0.5500    3.8720 c3        1 MOL     -0.329657
    179 H86         7.3370    0.7410    3.7170 h1        1 MOL      0.117898
    180 H87         5.8770    1.2770    4.5800 h1        1 MOL      0.117898
    181 H88         6.1420   -0.4560    4.2690 h1        1 MOL      0.117898
    182 H89         5.6480   -0.0320    1.8890 hn        1 MOL      0.125829
    183 Ca1        -1.9000   -0.5460   -1.5650 Ca        1 MOL      1.709827
    184 O25        -0.9320   -2.6780   -2.9640 oh        1 MOL     -0.866272
    185 H90        -1.6800   -3.1890   -3.2510 ho        1 MOL      0.394938
    186 H91        -0.2530   -2.8470   -3.6220 ho        1 MOL      0.394938
    187 O26        -0.5960    0.4250   -4.1280 oh        1 MOL     -0.866272
    188 H92        -1.2890    0.9940   -4.4480 ho        1 MOL      0.394938
    189 H93        -0.5420   -0.2770   -4.7830 ho        1 MOL      0.394938
@<TRIPOS>BOND
     1    1    2 1   
     2    1    4 1   
     3    1    5 1   
     4    1    6 1   
     5    2    3 2   
     6    2    7 1   
     7    7    8 1   
     8    7   15 1   
     9    8    9 1   
    10    8   11 1   
    11    8   16 1   
    12    9   10 2   
    13    9   19 1   
    14   11   12 1   
    15   11   17 1   
    16   11   18 1   
    17   12   13 1   
    18   12   14 1   
    19   19   20 1   
    20   19   28 1   
    21   20   21 1   
    22   20   23 1   
    23   20   29 1   
    24   21   22 2   
    25   21   41 1   
    26   23   24 1   
    27   23   30 1   
    28   23   31 1   
    29   24   25 1   
    30   24   32 1   
    31   24   33 1   
    32   25   26 1   
    33   25   34 1   
    34   25   35 1   
    35   26   27 1   
    36   26   36 1   
    37   26   37 1   
    38   27   38 1   
    39   27   39 1   
    40   27   40 1   
    41   41   42 1   
    42   41   49 1   
    43   42   43 1   
    44   42   45 1   
    45   42   50 1   
    46   43   44 2   
    47   43   53 1   
    48   45   46 1   
    49   45   51 1   
    50   45   52 1   
    51   46   47 1   
    52   46   48 1   
    53   53   54 1   
    54   53   57 1   
    55   54   55 1   
    56   54   58 1   
    57   54   59 1   
    58   55   56 2   
    59   55   60 1   
    60   60   61 1   
    61   60   68 1   
    62   61   62 1   
    63   61   64 1   
    64   61   69 1   
    65   62   63 2   
    66   62   72 1   
    67   64   65 1   
    68   64   70 1   
    69   64   71 1   
    70   65   66 1   
    71   65   67 1   
    72   72   73 1   
    73   72   76 1   
    74   73   74 1   
    75   73   77 1   
    76   73   78 1   
    77   74   75 2   
    78   74   79 1   
    79   79   80 1   
    80   79   86 1   
    81   80   81 1   
    82   80   83 1   
    83   80   87 1   
    84   81   82 2   
    85   81   93 1   
    86   83   84 1   
    87   83   85 1   
    88   83   88 1   
    89   84   90 1   
    90   84   91 1   
    91   84   92 1   
    92   85   89 1   
    93   93   94 1   
    94   93  101 1   
    95   94   95 1   
    96   94   97 1   
    97   94  102 1   
    98   95   96 2   
    99   95  112 1   
   100   97   98 1   
   101   97   99 1   
   102   97  103 1   
   103   98  100 1   
   104   98  104 1   
   105   98  105 1   
   106   99  106 1   
   107   99  107 1   
   108   99  108 1   
   109  100  109 1   
   110  100  110 1   
   111  100  111 1   
   112  112  113 1   
   113  112  119 1   
   114  113  114 1   
   115  113  116 1   
   116  113  120 1   
   117  114  115 2   
   118  114  126 1   
   119  116  117 1   
   120  116  118 1   
   121  116  121 1   
   122  117  123 1   
   123  117  124 1   
   124  117  125 1   
   125  118  122 1   
   126  126  127 1   
   127  126  133 1   
   128  127  128 1   
   129  127  130 1   
   130  127  134 1   
   131  128  129 2   
   132  128  140 1   
   133  130  131 1   
   134  130  132 1   
   135  130  135 1   
   136  131  137 1   
   137  131  138 1   
   138  131  139 1   
   139  132  136 1   
   140  140  141 1   
   141  140  149 1   
   142  141  142 1   
   143  141  144 1   
   144  141  150 1   
   145  142  143 2   
   146  142  162 1   
   147  144  145 1   
   148  144  151 1   
   149  144  152 1   
   150  145  146 1   
   151  145  153 1   
   152  145  154 1   
   153  146  147 1   
   154  146  155 1   
   155  146  156 1   
   156  147  148 1   
   157  147  157 1   
   158  147  158 1   
   159  148  159 1   
   160  148  160 1   
   161  148  161 1   
   162  162  163 1   
   163  162  171 1   
   164  163  164 1   
   165  163  166 1   
   166  163  172 1   
   167  164  165 2   
   168  164  177 1   
   169  166  167 1   
   170  166  173 1   
   171  166  174 1   
   172  167  168 1   
   173  167  175 1   
   174  167  176 1   
   175  168  169 1   
   176  168  170 1   
   177  177  178 1   
   178  177  182 1   
   179  178  179 1   
   180  178  180 1   
   181  178  181 1   
   182  184  185 1   
   183  184  186 1   
   184  187  188 1   
   185  187  189 1   
@<TRIPOS>SUBSTRUCTURE
     1 MOL         1 TEMP              0 ****  ****    0 ROOT
