@<TRIPOS>MOLECULE
MOL
  189   185     1     0     0
SMALL
resp


@<TRIPOS>ATOM
      1 C1          0.0320    3.6090    4.5870 c3        1 MOL     -0.217645
      2 C2         -0.5370    3.2320    3.2100 c         1 MOL      0.663033
      3 O1         -0.0270    3.6220    2.1350 o         1 MOL     -0.643249
      4 H1          0.8290    4.3430    4.4620 hc        1 MOL      0.065564
      5 H2         -0.7590    4.0350    5.2040 hc        1 MOL      0.065564
      6 H3          0.4320    2.7180    5.0720 hc        1 MOL      0.065564
      7 N1         -1.6630    2.5030    3.0660 n         1 MOL     -0.553290
      8 C3         -2.2600    1.9160    1.8600 c3        1 MOL      0.329753
      9 C4         -2.9440    2.8550    0.8990 c         1 MOL      0.326095
     10 O2         -4.1920    2.8780    0.8560 o         1 MOL     -0.437617
     11 C5         -3.2140    0.7700    2.3400 c3        1 MOL     -0.362231
     12 C6         -3.9100    0.0230    1.2370 c         1 MOL      0.634999
     13 O3         -4.9010   -0.6730    1.5510 o         1 MOL     -0.609694
     14 O4         -3.5360    0.1730    0.0050 o         1 MOL     -0.609694
     15 H4         -2.0940    2.1890    3.9250 hn        1 MOL      0.274382
     16 H5         -1.4870    1.3830    1.3040 h1        1 MOL      0.007907
     17 H6         -3.9930    1.2910    2.8980 hc        1 MOL      0.090750
     18 H7         -2.6980    0.0740    3.0020 hc        1 MOL      0.090750
     19 N2         -2.2400    3.7490    0.2080 n         1 MOL     -0.361011
     20 C7         -2.7130    4.9290   -0.5390 c3        1 MOL     -0.041548
     21 C8         -3.4880    4.6610   -1.8720 c         1 MOL      0.566675
     22 O5         -3.9360    5.5710   -2.5860 o         1 MOL     -0.564560
     23 C9         -1.6690    6.0170   -0.7000 c3        1 MOL      0.047291
     24 C10        -1.0590    6.6340    0.5440 c3        1 MOL      0.045790
     25 C11        -2.0150    6.9280    1.7770 c3        1 MOL     -0.117440
     26 C12        -3.2000    7.8320    1.4740 c3        1 MOL      0.280263
     27 N3         -3.8180    8.4460    2.6770 n4        1 MOL     -0.579546
     28 H8         -1.3260    3.8550    0.6200 hn        1 MOL      0.358209
     29 H9         -3.5600    5.2790    0.0370 h1        1 MOL      0.046250
     30 H10        -2.0740    6.8050   -1.3320 hc        1 MOL      0.000739
     31 H11        -0.8370    5.5200   -1.1830 hc        1 MOL      0.000739
     32 H12        -0.6290    7.6050    0.2980 hc        1 MOL      0.021745
     33 H13        -0.2590    5.9870    0.9000 hc        1 MOL      0.021745
     34 H14        -1.3490    7.4790    2.4380 hc        1 MOL      0.022336
     35 H15        -2.3420    6.0420    2.3250 hc        1 MOL      0.022336
     36 H16        -3.9230    7.3220    0.8490 hx        1 MOL      0.025301
     37 H17        -2.8960    8.6600    0.8260 hx        1 MOL      0.025301
     38 H18        -4.2120    7.6610    3.1960 hn        1 MOL      0.376371
     39 H19        -3.1290    8.9820    3.1960 hn        1 MOL      0.376371
     40 H20        -4.5930    9.0680    2.5210 hn        1 MOL      0.376371
     41 N4         -3.7940    3.3490   -2.0540 n         1 MOL     -0.433812
     42 C13        -4.7480    2.8280   -3.0320 c3        1 MOL      0.278745
     43 C14        -5.7850    1.7470   -2.4890 c         1 MOL      0.243618
     44 O6         -6.6500    1.2250   -3.1990 o         1 MOL     -0.521238
     45 C15        -4.0570    2.2550   -4.2460 c3        1 MOL     -0.381440
     46 C16        -3.1310    1.0550   -3.9160 c         1 MOL      0.921576
     47 O7         -2.0340    1.0230   -4.5710 o         1 MOL     -0.739651
     48 O8         -3.3540    0.1900   -3.0580 o         1 MOL     -0.739651
     49 H21        -3.2930    2.6800   -1.4810 hn        1 MOL      0.248439
     50 H22        -5.3860    3.6490   -3.3340 h1        1 MOL      0.060893
     51 H23        -3.5000    3.0390   -4.7560 hc        1 MOL      0.080611
     52 H24        -4.8130    1.8950   -4.9470 hc        1 MOL      0.080611
     53 N5         -5.8500    1.5370   -1.2060 n         1 MOL      0.024435
     54 C17        -6.9970    1.0410   -0.4560 c3        1 MOL     -0.323282
     55 C18        -7.2650   -0.4740   -0.6420 c         1 MOL      0.642467
     56 O9         -8.3190   -0.9320   -0.2110 o         1 MOL     -0.615429
     57 H25        -5.0860    1.8600   -0.6340 hn        1 MOL     -0.003277
     58 H26        -7.9340    1.5530   -0.6750 h1        1 MOL      0.135173
     59 H27        -6.8050    1.1750    0.6110 h1        1 MOL      0.135173
     60 N6         -6.4200   -1.2730   -1.3050 n         1 MOL     -0.406502
     61 C19        -6.5420   -2.6790   -1.6730 c3        1 MOL     -0.040164
     62 C20        -6.4780   -3.6350   -0.4790 c         1 MOL      0.423781
     63 O10        -6.7490   -4.8440   -0.7120 o         1 MOL     -0.536211
     64 C21        -5.4560   -3.0370   -2.6610 c3        1 MOL     -0.211741
     65 C22        -3.9930   -2.8170   -2.2060 c         1 MOL      0.656447
     66 O11        -3.1410   -2.5520   -3.0480 o         1 MOL     -0.668273
     67 O12        -3.6820   -2.6610   -1.0090 o         1 MOL     -0.668273
     68 H28        -5.5390   -0.8140   -1.4760 hn        1 MOL      0.401211
     69 H29        -7.4640   -2.8330   -2.2260 h1        1 MOL      0.124620
     70 H30        -5.4650   -2.4200   -3.5640 hc        1 MOL      0.080195
     71 H31        -5.7020   -4.0530   -2.9640 hc        1 MOL      0.080195
     72 N7         -6.1730   -3.1530    0.7510 n         1 MOL     -0.124196
     73 C23        -6.0930   -3.9090    2.0110 c3        1 MOL     -0.157624
     74 C24        -4.6740   -4.4550    2.2950 c         1 MOL      0.677866
     75 O13        -4.5540   -5.4040    3.0900 o         1 MOL     -0.613012
     76 H32        -5.8120   -2.2120    0.7430 hn        1 MOL      0.172777
     77 H33        -6.7590   -4.7700    2.0730 h1        1 MOL      0.081311
     78 H34        -6.3550   -3.2170    2.8140 h1        1 MOL      0.081311
     79 N8         -3.6950   -3.8550    1.6900 n         1 MOL     -0.504089
     80 C25        -2.3270   -4.3440    1.7330 c3        1 MOL     -0.066257
     81 C26        -1.2470   -3.2790    1.6560 c         1 MOL      0.701807
     82 O14        -1.3400   -2.4030    0.8250 o         1 MOL     -0.573003
     83 C27        -1.9510   -5.3840    0.6110 c3        1 MOL      0.450535
     84 C28        -2.1200   -6.8030    1.1580 c3        1 MOL     -0.482030
     85 O15        -2.7380   -5.3140   -0.5100 oh        1 MOL     -0.558105
     86 H35        -3.9090   -3.2550    0.9120 hn        1 MOL      0.327917
     87 H36        -2.1960   -5.0030    2.6000 h1        1 MOL      0.074995
     88 H37        -0.9460   -5.2870    0.2150 h1        1 MOL     -0.022989
     89 H38        -2.7730   -4.3660   -0.6350 ho        1 MOL      0.354739
     90 H39        -1.4400   -6.9280    1.9990 hc        1 MOL      0.119430
     91 H40        -3.1450   -6.8370    1.5290 hc        1 MOL      0.119430
     92 H41        -1.9840   -7.5990    0.4210 hc        1 MOL      0.119430
     93 N9         -0.1140   -3.3590    2.4420 n         1 MOL     -0.867867
     94 C29         0.9500   -2.3950    2.3780 c3        1 MOL      0.452720
     95 C30         2.1460   -3.0210    1.6450 c         1 MOL      0.390731
     96 O16         2.6690   -4.0480    2.0580 o         1 MOL     -0.548944
     97 C31         1.4360   -1.9710    3.8570 c3        1 MOL     -0.000787
     98 C32         0.2670   -1.3970    4.7230 c3        1 MOL      0.137253
     99 C33         2.5910   -1.0020    3.8750 c3        1 MOL     -0.133587
    100 C34         0.6430   -1.1890    6.1980 c3        1 MOL     -0.340667
    101 H42        -0.1630   -4.1220    3.1080 hn        1 MOL      0.353795
    102 H43         0.5700   -1.5580    1.7940 h1        1 MOL      0.018073
    103 H44         1.7630   -2.8800    4.3580 hc        1 MOL      0.012986
    104 H45        -0.6210   -2.0330    4.6820 hc        1 MOL     -0.012767
    105 H46        -0.1740   -0.5030    4.2770 hc        1 MOL     -0.012767
    106 H47         3.2970   -1.0920    3.0470 hc        1 MOL      0.007683
    107 H48         2.1980   -0.0190    3.6150 hc        1 MOL      0.007683
    108 H49         3.1580   -1.0750    4.7960 hc        1 MOL      0.007683
    109 H50        -0.2160   -1.0380    6.8500 hc        1 MOL      0.086001
    110 H51         1.0600   -2.0970    6.6290 hc        1 MOL      0.086001
    111 H52         1.4200   -0.4290    6.2760 hc        1 MOL      0.086001
    112 N10         2.7300   -2.2770    0.6980 n         1 MOL     -0.150231
    113 C35         4.0520   -2.5240    0.0570 c3        1 MOL      0.107055
    114 C36         5.1770   -1.8290    0.7120 c         1 MOL      0.319099
    115 O17         5.0530   -0.8720    1.5040 o         1 MOL     -0.271415
    116 C37         4.0610   -2.1780   -1.4900 c3        1 MOL      0.018064
    117 C38         2.8130   -2.7430   -2.1140 c3        1 MOL     -0.342316
    118 O18         4.0590   -0.8200   -1.7140 oh        1 MOL     -0.235871
    119 H53         2.2430   -1.4340    0.4160 hn        1 MOL      0.110274
    120 H54         4.3100   -3.5850    0.0580 h1        1 MOL      0.058405
    121 H55         4.9510   -2.6390   -1.9000 h1        1 MOL      0.013008
    122 H56         3.7220   -0.5840   -2.5770 ho        1 MOL      0.337703
    123 H57         2.9170   -3.8190   -2.0270 hc        1 MOL      0.098825
    124 H58         1.9500   -2.3200   -1.5960 hc        1 MOL      0.098825
    125 H59         2.7140   -2.5080   -3.1730 hc        1 MOL      0.098825
    126 N11         6.4130   -2.1510    0.3170 n         1 MOL     -0.337255
    127 C39         7.6300   -1.3300    0.6480 c3        1 MOL     -0.150946
    128 C40         7.6030    0.0650    0.1980 c         1 MOL      0.167477
    129 O19         8.0680    0.9170    0.9900 o         1 MOL     -0.451221
    130 C41         8.9020   -2.0360   -0.0370 c3        1 MOL      0.303192
    131 C42         9.0890   -3.4480    0.5230 c3        1 MOL     -0.460880
    132 O20         8.7620   -2.0680   -1.4560 oh        1 MOL     -0.584158
    133 H60         6.5770   -2.9630   -0.2540 hn        1 MOL      0.282655
    134 H61         7.7790   -1.3710    1.7310 h1        1 MOL      0.167141
    135 H62         9.7900   -1.4510    0.1610 h1        1 MOL      0.062184
    136 H63         9.6360   -1.9140   -1.8010 ho        1 MOL      0.342238
    137 H64        10.0600   -3.8080    0.1630 hc        1 MOL      0.134668
    138 H65         9.0620   -3.5440    1.6100 hc        1 MOL      0.134668
    139 H66         8.3130   -4.1010    0.1190 hc        1 MOL      0.134668
    140 N12         6.9050    0.3880   -0.8920 n         1 MOL      0.119107
    141 C43         6.6420    1.7370   -1.3810 c3        1 MOL     -0.004525
    142 C44         5.8030    2.4520   -0.3110 c         1 MOL      0.300044
    143 O21         6.2750    3.4240    0.2090 o         1 MOL     -0.484026
    144 C45         6.0470    1.7010   -2.8130 c3        1 MOL      0.107636
    145 C46         7.2160    2.0230   -3.8210 c3        1 MOL      0.103116
    146 C47         8.3120    0.9310   -3.8940 c3        1 MOL     -0.403359
    147 C48         8.0220   -0.5060   -4.4040 c3        1 MOL      0.216263
    148 N13         9.2830   -1.0850   -4.9010 n4        1 MOL     -0.376710
    149 H67         6.3630   -0.3140   -1.3810 hn        1 MOL      0.109202
    150 H68         7.6090    2.2490   -1.3760 h1        1 MOL      0.066341
    151 H69         5.3150    2.5040   -2.9430 hc        1 MOL     -0.047370
    152 H70         5.6120    0.7340   -3.0380 hc        1 MOL     -0.047370
    153 H71         7.7080    2.9420   -3.5090 hc        1 MOL      0.031597
    154 H72         6.7380    2.1490   -4.7940 hc        1 MOL      0.031597
    155 H73         8.7570    0.8240   -2.9040 hc        1 MOL      0.097990
    156 H74         9.1100    1.3310   -4.5200 hc        1 MOL      0.097990
    157 H75         7.3870   -0.5530   -5.2890 hx        1 MOL      0.038758
    158 H76         7.4800   -1.0650   -3.6500 hx        1 MOL      0.038758
    159 H77         9.5960   -0.5170   -5.6760 hn        1 MOL      0.290346
    160 H78         9.9950   -1.1150   -4.1870 hn        1 MOL      0.290346
    161 H79         9.2410   -1.9970   -5.3330 hn        1 MOL      0.290346
    162 N14         4.5970    1.9670    0.0590 n         1 MOL      0.037899
    163 C49         3.5880    2.5610    0.9590 c3        1 MOL     -0.146175
    164 C50         4.0910    2.5000    2.3890 c         1 MOL      0.435483
    165 O22         3.8140    3.5050    3.0850 o         1 MOL     -0.563537
    166 C51         2.3140    1.6770    0.7690 c3        1 MOL      0.234619
    167 C52         1.6700    1.9080   -0.6250 c3        1 MOL     -0.392722
    168 C53         0.5350    0.8850   -0.7950 c         1 MOL      0.705469
    169 O23         0.6580   -0.3290   -0.4770 o         1 MOL     -0.747529
    170 O24        -0.5960    1.2750   -1.2250 o         1 MOL     -0.747529
    171 H80         4.3800    1.0780   -0.3710 hn        1 MOL     -0.169181
    172 H81         3.4250    3.5900    0.6600 h1        1 MOL      0.126506
    173 H82         1.6220    2.0070    1.5420 hc        1 MOL      0.005681
    174 H83         2.5490    0.6350    0.9530 hc        1 MOL      0.005681
    175 H84         2.4160    1.8360   -1.4130 hc        1 MOL      0.120771
    176 H85         1.3180    2.9360   -0.6350 hc        1 MOL      0.120771
    177 N15         4.8500    1.4760    2.8750 n         1 MOL     -0.055296
    178 C54         5.4990    1.3510    4.2510 c3        1 MOL     -0.312059
    179 H86         6.2380    2.1420    4.3780 h1        1 MOL      0.117443
    180 H87         4.7350    1.4420    5.0230 h1        1 MOL      0.117443
    181 H88         5.9880    0.3810    4.3360 h1        1 MOL      0.117443
    182 H89         5.0020    0.6820    2.2740 hn        1 MOL      0.138838
    183 Ca1        -1.7170   -1.0400   -1.4120 Ca        1 MOL      1.708557
    184 O25        -0.5250   -3.2180   -2.2150 oh        1 MOL     -0.822840
    185 H90         0.0680   -3.9610   -2.3310 ho        1 MOL      0.386739
    186 H91        -0.5130   -2.7640   -3.0630 ho        1 MOL      0.386739
    187 O26        -0.6420   -1.0020   -3.8920 oh        1 MOL     -0.822840
    188 H92         0.0210   -1.3130   -4.5060 ho        1 MOL      0.386739
    189 H93        -1.0970   -0.3040   -4.3720 ho        1 MOL      0.386739
@<TRIPOS>BOND
     1    1    2 1   
     2    1    4 1   
     3    1    5 1   
     4    1    6 1   
     5    2    3 2   
     6    2    7 1   
     7    7    8 1   
     8    7   15 1   
     9    8    9 1   
    10    8   11 1   
    11    8   16 1   
    12    9   10 2   
    13    9   19 1   
    14   11   12 1   
    15   11   17 1   
    16   11   18 1   
    17   12   13 1   
    18   12   14 1   
    19   19   20 1   
    20   19   28 1   
    21   20   21 1   
    22   20   23 1   
    23   20   29 1   
    24   21   22 2   
    25   21   41 1   
    26   23   24 1   
    27   23   30 1   
    28   23   31 1   
    29   24   25 1   
    30   24   32 1   
    31   24   33 1   
    32   25   26 1   
    33   25   34 1   
    34   25   35 1   
    35   26   27 1   
    36   26   36 1   
    37   26   37 1   
    38   27   38 1   
    39   27   39 1   
    40   27   40 1   
    41   41   42 1   
    42   41   49 1   
    43   42   43 1   
    44   42   45 1   
    45   42   50 1   
    46   43   44 2   
    47   43   53 1   
    48   45   46 1   
    49   45   51 1   
    50   45   52 1   
    51   46   47 1   
    52   46   48 1   
    53   53   54 1   
    54   53   57 1   
    55   54   55 1   
    56   54   58 1   
    57   54   59 1   
    58   55   56 2   
    59   55   60 1   
    60   60   61 1   
    61   60   68 1   
    62   61   62 1   
    63   61   64 1   
    64   61   69 1   
    65   62   63 2   
    66   62   72 1   
    67   64   65 1   
    68   64   70 1   
    69   64   71 1   
    70   65   66 1   
    71   65   67 1   
    72   72   73 1   
    73   72   76 1   
    74   73   74 1   
    75   73   77 1   
    76   73   78 1   
    77   74   75 2   
    78   74   79 1   
    79   79   80 1   
    80   79   86 1   
    81   80   81 1   
    82   80   83 1   
    83   80   87 1   
    84   81   82 2   
    85   81   93 1   
    86   83   84 1   
    87   83   85 1   
    88   83   88 1   
    89   84   90 1   
    90   84   91 1   
    91   84   92 1   
    92   85   89 1   
    93   93   94 1   
    94   93  101 1   
    95   94   95 1   
    96   94   97 1   
    97   94  102 1   
    98   95   96 2   
    99   95  112 1   
   100   97   98 1   
   101   97   99 1   
   102   97  103 1   
   103   98  100 1   
   104   98  104 1   
   105   98  105 1   
   106   99  106 1   
   107   99  107 1   
   108   99  108 1   
   109  100  109 1   
   110  100  110 1   
   111  100  111 1   
   112  112  113 1   
   113  112  119 1   
   114  113  114 1   
   115  113  116 1   
   116  113  120 1   
   117  114  115 2   
   118  114  126 1   
   119  116  117 1   
   120  116  118 1   
   121  116  121 1   
   122  117  123 1   
   123  117  124 1   
   124  117  125 1   
   125  118  122 1   
   126  126  127 1   
   127  126  133 1   
   128  127  128 1   
   129  127  130 1   
   130  127  134 1   
   131  128  129 2   
   132  128  140 1   
   133  130  131 1   
   134  130  132 1   
   135  130  135 1   
   136  131  137 1   
   137  131  138 1   
   138  131  139 1   
   139  132  136 1   
   140  140  141 1   
   141  140  149 1   
   142  141  142 1   
   143  141  144 1   
   144  141  150 1   
   145  142  143 2   
   146  142  162 1   
   147  144  145 1   
   148  144  151 1   
   149  144  152 1   
   150  145  146 1   
   151  145  153 1   
   152  145  154 1   
   153  146  147 1   
   154  146  155 1   
   155  146  156 1   
   156  147  148 1   
   157  147  157 1   
   158  147  158 1   
   159  148  159 1   
   160  148  160 1   
   161  148  161 1   
   162  162  163 1   
   163  162  171 1   
   164  163  164 1   
   165  163  166 1   
   166  163  172 1   
   167  164  165 2   
   168  164  177 1   
   169  166  167 1   
   170  166  173 1   
   171  166  174 1   
   172  167  168 1   
   173  167  175 1   
   174  167  176 1   
   175  168  169 1   
   176  168  170 1   
   177  177  178 1   
   178  177  182 1   
   179  178  179 1   
   180  178  180 1   
   181  178  181 1   
   182  184  185 1   
   183  184  186 1   
   184  187  188 1   
   185  187  189 1   
@<TRIPOS>SUBSTRUCTURE
     1 MOL         1 TEMP              0 ****  ****    0 ROOT
