@<TRIPOS>MOLECULE
MOL
  172   171     1     0     0
SMALL
resp


@<TRIPOS>ATOM
      1 C1         -0.5350   -3.0050    5.6140 c3        1 MOL     -0.422512
      2 C2          0.0630   -2.9860    4.3000 c         1 MOL      0.799299
      3 O1         -0.4910   -3.5540    3.3930 o         1 MOL     -0.617658
      4 H1          0.2220   -2.7670    6.3600 hc        1 MOL      0.097514
      5 H2         -1.3350   -2.2670    5.6600 hc        1 MOL      0.097514
      6 H3         -0.9420   -3.9960    5.8130 hc        1 MOL      0.097514
      7 N1          1.2180   -2.3740    4.1210 n         1 MOL     -0.695267
      8 C3          1.7850   -2.1420    2.8250 c3        1 MOL      0.536148
      9 C4          2.3780   -3.3530    2.0740 c         1 MOL      0.377987
     10 O2          3.3400   -3.9710    2.6520 o         1 MOL     -0.559548
     11 C5          2.8490   -1.0350    3.0400 c3        1 MOL     -0.459847
     12 C6          3.7080   -0.7270    1.8110 c         1 MOL      0.737143
     13 O3          3.3860   -1.1430    0.6630 o         1 MOL     -0.637614
     14 O4          4.7980   -0.1120    2.0020 o         1 MOL     -0.637614
     15 H4          1.5370   -1.8480    4.9290 hn        1 MOL      0.320798
     16 H5          1.0430   -1.6870    2.1660 h1        1 MOL     -0.055584
     17 H6          3.5070   -1.2510    3.8820 hc        1 MOL      0.093274
     18 H7          2.2230   -0.1730    3.2550 hc        1 MOL      0.093274
     19 N2          1.7280   -3.9330    1.0030 n         1 MOL     -0.256837
     20 C7          1.9990   -5.2750    0.4930 c3        1 MOL      0.211276
     21 C8          3.0030   -5.3650   -0.6190 c         1 MOL      0.326096
     22 O5          3.7590   -6.3330   -0.6350 o         1 MOL     -0.560236
     23 C9          0.7160   -5.8850    0.0520 c3        1 MOL     -0.428554
     24 H8          0.9300   -3.5100    0.5490 hn        1 MOL      0.222040
     25 H9          2.3820   -5.8150    1.3590 h1        1 MOL      0.058948
     26 H10         0.1210   -6.1540    0.9250 hc        1 MOL      0.106942
     27 H11         0.3630   -5.2570   -0.7640 hc        1 MOL      0.106942
     28 H12         1.0580   -6.8470   -0.3430 hc        1 MOL      0.106942
     29 N3          3.2020   -4.3450   -1.4430 n         1 MOL     -0.085907
     30 C10         4.2580   -4.1910   -2.4120 c3        1 MOL     -0.090186
     31 C11         5.5420   -3.7780   -1.6690 c         1 MOL      0.456788
     32 O6          6.6660   -4.0460   -2.1480 o         1 MOL     -0.576455
     33 C12         3.8810   -3.3170   -3.5920 c3        1 MOL     -0.076583
     34 C13         3.4450   -1.9160   -3.1370 c         1 MOL      0.593098
     35 O7          2.2300   -1.6590   -3.3240 o         1 MOL     -0.661422
     36 O8          4.1330   -1.1400   -2.4130 o         1 MOL     -0.661422
     37 H13         2.5220   -3.5940   -1.4180 hn        1 MOL      0.182519
     38 H14         4.4300   -5.1730   -2.8750 h1        1 MOL      0.087531
     39 H15         3.0960   -3.7900   -4.1860 hc        1 MOL      0.028015
     40 H16         4.7560   -3.2370   -4.2370 hc        1 MOL      0.028015
     41 N4          5.4210   -3.1030   -0.5080 n         1 MOL      0.020782
     42 C14         6.4340   -2.6950    0.3960 c3        1 MOL     -0.362393
     43 C15         6.9920   -1.3490    0.1560 c         1 MOL      0.730280
     44 O9          8.1550   -1.1870    0.5220 o         1 MOL     -0.643782
     45 H17         4.4900   -2.7660   -0.2750 hn        1 MOL      0.009124
     46 H18         7.2960   -3.3500    0.2890 h1        1 MOL      0.138650
     47 H19         6.0290   -2.7490    1.4020 h1        1 MOL      0.138650
     48 N5          6.3210   -0.3370   -0.4480 n         1 MOL     -0.297334
     49 C16         6.9230    0.9380   -0.9400 c3        1 MOL     -0.005318
     50 C17         6.9490    2.2110   -0.0730 c         1 MOL      0.345846
     51 O10         7.5380    3.2770   -0.4220 o         1 MOL     -0.552771
     52 C18         6.3200    1.2940   -2.3120 c3        1 MOL     -0.193898
     53 C19         5.0140    2.0830   -2.1350 c         1 MOL      0.573604
     54 N6          4.9350    3.2620   -2.7040 n         1 MOL     -0.678293
     55 O11         4.1780    1.7710   -1.3390 o         1 MOL     -0.555948
     56 H20         5.3420   -0.5400   -0.5840 hn        1 MOL      0.099121
     57 H21         7.9500    0.6010   -1.0620 h1        1 MOL      0.109583
     58 H22         6.1160    0.3870   -2.8840 hc        1 MOL      0.074671
     59 H23         6.9930    1.9840   -2.8400 hc        1 MOL      0.074671
     60 H24         5.7120    3.5590   -3.2700 hn        1 MOL      0.327837
     61 H25         4.1340    3.8310   -2.4840 hn        1 MOL      0.327837
     62 N7          6.3450    2.1850    1.1030 n         1 MOL     -0.040348
     63 C20         6.2360    3.2800    2.0450 c3        1 MOL     -0.229704
     64 C21         5.0970    4.2940    1.7740 c         1 MOL      0.574407
     65 O12         5.1850    5.3610    2.3580 o         1 MOL     -0.574039
     66 H26         5.8950    1.3340    1.4060 hn        1 MOL      0.155312
     67 H27         7.1870    3.8030    2.1160 h1        1 MOL      0.100070
     68 H28         6.1890    2.7910    3.0230 h1        1 MOL      0.100070
     69 N8          4.1530    3.8770    0.9450 n         1 MOL     -0.237550
     70 C22         2.8080    4.4980    0.8280 c3        1 MOL     -0.287179
     71 C23         1.7120    3.4960    0.6480 c         1 MOL      0.835196
     72 O13         1.9360    2.2870    0.2780 o         1 MOL     -0.667444
     73 C24         2.7290    5.5540   -0.3090 c3        1 MOL      0.319041
     74 C25         3.8130    6.6070   -0.2340 c3        1 MOL     -0.347723
     75 O14         2.7820    4.8610   -1.6360 oh        1 MOL     -0.543108
     76 H29         4.3410    3.0670    0.3680 hn        1 MOL      0.256707
     77 H30         2.5870    5.0390    1.7460 h1        1 MOL      0.109980
     78 H31         1.7560    6.0340   -0.1850 h1        1 MOL      0.003108
     79 H32         2.6260    5.6280   -2.1900 ho        1 MOL      0.354377
     80 H33         3.5530    7.5750   -0.6610 hc        1 MOL      0.098961
     81 H34         4.0010    6.8860    0.8010 hc        1 MOL      0.098961
     82 H35         4.7310    6.2610   -0.7050 hc        1 MOL      0.098961
     83 N9          0.5620    3.8890    1.1650 n         1 MOL     -0.613269
     84 C26        -0.6790    3.1340    1.2070 c3        1 MOL     -0.062878
     85 C27        -1.4590    3.0810   -0.1460 c         1 MOL      0.478714
     86 O15        -1.6130    4.1510   -0.7100 o         1 MOL     -0.579921
     87 C28        -1.6560    3.5190    2.3850 c3        1 MOL      0.366179
     88 C29        -0.8780    3.5200    3.6850 c3        1 MOL      0.141263
     89 C30        -2.8110    2.4910    2.4460 c3        1 MOL     -0.215933
     90 C31        -1.7200    3.7470    4.9880 c3        1 MOL     -0.541034
     91 H36         0.4780    4.8120    1.5500 hn        1 MOL      0.339626
     92 H37        -0.4890    2.0690    1.3890 h1        1 MOL      0.114388
     93 H38        -2.0720    4.5080    2.2340 hc        1 MOL     -0.073024
     94 H39        -0.2400    4.4000    3.5600 hc        1 MOL     -0.028571
     95 H40        -0.2640    2.6240    3.6870 hc        1 MOL     -0.028571
     96 H41        -2.3530    1.5050    2.5820 hc        1 MOL      0.014383
     97 H42        -3.4190    2.7140    3.3290 hc        1 MOL      0.014383
     98 H43        -3.4520    2.5310    1.5730 hc        1 MOL      0.014383
     99 H44        -1.1150    3.7620    5.8940 hc        1 MOL      0.136504
    100 H45        -2.4490    4.5520    4.8870 hc        1 MOL      0.136504
    101 H46        -2.1010    2.7620    5.2500 hc        1 MOL      0.136504
    102 N10        -1.8870    1.9710   -0.6810 n         1 MOL     -0.332441
    103 C32        -2.8750    1.7880   -1.7180 c3        1 MOL      0.341017
    104 C33        -4.2090    1.4000   -1.1320 c         1 MOL      0.328873
    105 O16        -4.3820    0.8900   -0.0380 o         1 MOL     -0.189877
    106 C34        -2.4510    0.9050   -2.8700 c3        1 MOL     -0.597750
    107 C35        -0.9470    0.9540   -3.2930 c         1 MOL      0.920892
    108 O17        -0.5180    1.6820   -4.2510 o         1 MOL     -0.729875
    109 O18        -0.1500    0.2080   -2.7750 o         1 MOL     -0.729875
    110 H47        -1.4700    1.1130   -0.3190 hn        1 MOL      0.161803
    111 H48        -3.0060    2.7650   -2.1920 h1        1 MOL      0.031984
    112 H49        -3.1080    1.0600   -3.7230 hc        1 MOL      0.129005
    113 H50        -2.6210   -0.1390   -2.6200 hc        1 MOL      0.129005
    114 N11        -5.3620    1.6850   -1.8130 n         1 MOL     -0.668098
    115 C36        -6.6910    1.3050   -1.2760 c3        1 MOL      0.399012
    116 C37        -6.8690   -0.2030   -0.9220 c         1 MOL      0.292420
    117 O19        -7.5950   -0.4170    0.0600 o         1 MOL     -0.437730
    118 C38        -7.7850    1.7460   -2.2190 c3        1 MOL     -0.190209
    119 C39        -9.1710    1.4550   -1.6420 ca        1 MOL      0.029987
    120 C40        -9.8890    0.3540   -2.0060 ca        1 MOL     -0.117515
    121 C41        -9.6810    2.3040   -0.6580 ca        1 MOL     -0.117515
    122 C42       -11.1470    0.0450   -1.5030 ca        1 MOL     -0.155565
    123 C43       -10.8510    1.9840   -0.0230 ca        1 MOL     -0.155565
    124 C44       -11.6520    0.8890   -0.4330 ca        1 MOL     -0.061494
    125 H51        -5.3580    2.1520   -2.7210 hn        1 MOL      0.344610
    126 H52        -6.8300    1.7650   -0.2970 h1        1 MOL      0.013966
    127 H53        -7.6270    1.1870   -3.1370 hc        1 MOL      0.059019
    128 H54        -7.5680    2.7950   -2.4410 hc        1 MOL      0.059019
    129 H55        -9.4940   -0.2600   -2.8070 ha        1 MOL      0.105504
    130 H56        -9.1720    3.2210   -0.3910 ha        1 MOL      0.105504
    131 H57       -11.7000   -0.8410   -1.7700 ha        1 MOL      0.121920
    132 H58       -11.2090    2.5610    0.8130 ha        1 MOL      0.121920
    133 H59       -12.6590    0.7730   -0.0630 ha        1 MOL      0.085268
    134 N12        -6.3040   -1.2740   -1.5960 n         1 MOL     -0.129386
    135 C45        -6.2120   -2.6810   -1.0470 c3        1 MOL     -0.054223
    136 C46        -5.5160   -2.7770    0.3180 c         1 MOL      0.323131
    137 O20        -5.8070   -3.7270    0.9790 o         1 MOL     -0.505896
    138 C47        -5.3340   -3.5280   -2.0670 c3        1 MOL     -0.095142
    139 C48        -4.4740   -2.4720   -2.7370 c3        1 MOL     -0.001241
    140 C49        -5.4720   -1.2860   -2.8090 c3        1 MOL      0.011299
    141 H60        -7.1950   -3.1310   -0.8950 h1        1 MOL      0.095865
    142 H61        -4.6370   -4.2640   -1.6500 hc        1 MOL      0.056680
    143 H62        -5.8960   -4.0920   -2.8070 hc        1 MOL      0.056680
    144 H63        -3.6520   -2.2220   -2.0480 hc        1 MOL      0.041564
    145 H64        -4.1850   -2.6670   -3.7680 hc        1 MOL      0.041564
    146 H65        -4.9320   -0.3680   -3.0750 h1        1 MOL      0.012323
    147 H66        -6.2100   -1.5230   -3.5710 h1        1 MOL      0.012323
    148 N13        -4.6320   -1.8360    0.6620 n         1 MOL     -0.033937
    149 C50        -3.8100   -1.8740    1.8810 c3        1 MOL     -0.076048
    150 C51        -4.5690   -1.1250    2.9440 c         1 MOL      0.519093
    151 O21        -4.4590   -1.5230    4.0830 o         1 MOL     -0.574676
    152 C52        -2.4560   -1.2960    1.5590 c3        1 MOL      0.085353
    153 C53        -1.6260   -2.1020    0.5480 c3        1 MOL     -0.091320
    154 C54        -0.3650   -1.4290   -0.0200 c         1 MOL      0.583780
    155 O22         0.4160   -2.0270   -0.7750 o         1 MOL     -0.693173
    156 O23        -0.0940   -0.2880    0.3620 o         1 MOL     -0.693173
    157 H67        -4.5630   -1.0050    0.0890 hn        1 MOL      0.063436
    158 H68        -3.6420   -2.8860    2.2680 h1        1 MOL      0.095185
    159 H69        -1.8720   -1.0450    2.4510 hc        1 MOL      0.022697
    160 H70        -2.6210   -0.3160    1.1080 hc        1 MOL      0.022697
    161 H71        -2.2400   -2.4060   -0.3020 hc        1 MOL      0.032149
    162 H72        -1.3200   -3.0600    0.9750 hc        1 MOL      0.032149
    163 N14        -5.2720   -0.0300    2.6280 n         1 MOL     -0.210819
    164 C55        -6.3560    0.5870    3.4490 c3        1 MOL     -0.150872
    165 H73        -7.3080    0.4810    2.9310 h1        1 MOL      0.073655
    166 H74        -6.4110    0.0850    4.4150 h1        1 MOL      0.073655
    167 H75        -6.1410    1.6450    3.6010 h1        1 MOL      0.073655
    168 H76        -5.1100    0.2810    1.6780 hn        1 MOL      0.112371
    169 Ca1         1.9510    0.0870   -1.2770 Ca        1 MOL      1.761066
    170 O24         1.8820    2.3050   -3.0110 oh        1 MOL     -0.840717
    171 H77         1.0580    2.3340   -3.4990 ho        1 MOL      0.380028
    172 H78         2.0940    3.2270   -2.8470 ho        1 MOL      0.380028
@<TRIPOS>BOND
     1    1    2 1   
     2    1    4 1   
     3    1    5 1   
     4    1    6 1   
     5    2    3 2   
     6    2    7 1   
     7    7    8 1   
     8    7   15 1   
     9    8    9 1   
    10    8   11 1   
    11    8   16 1   
    12    9   10 2   
    13    9   19 1   
    14   11   12 1   
    15   11   17 1   
    16   11   18 1   
    17   12   13 1   
    18   12   14 1   
    19   19   20 1   
    20   19   24 1   
    21   20   21 1   
    22   20   23 1   
    23   20   25 1   
    24   21   22 2   
    25   21   29 1   
    26   23   26 1   
    27   23   27 1   
    28   23   28 1   
    29   29   30 1   
    30   29   37 1   
    31   30   31 1   
    32   30   33 1   
    33   30   38 1   
    34   31   32 2   
    35   31   41 1   
    36   33   34 1   
    37   33   39 1   
    38   33   40 1   
    39   34   35 1   
    40   34   36 1   
    41   41   42 1   
    42   41   45 1   
    43   42   43 1   
    44   42   46 1   
    45   42   47 1   
    46   43   44 2   
    47   43   48 1   
    48   48   49 1   
    49   48   56 1   
    50   49   50 1   
    51   49   52 1   
    52   49   57 1   
    53   50   51 2   
    54   50   62 1   
    55   52   53 1   
    56   52   58 1   
    57   52   59 1   
    58   53   54 1   
    59   53   55 2   
    60   54   60 1   
    61   54   61 1   
    62   62   63 1   
    63   62   66 1   
    64   63   64 1   
    65   63   67 1   
    66   63   68 1   
    67   64   65 2   
    68   64   69 1   
    69   69   70 1   
    70   69   76 1   
    71   70   71 1   
    72   70   73 1   
    73   70   77 1   
    74   71   72 2   
    75   71   83 1   
    76   73   74 1   
    77   73   75 1   
    78   73   78 1   
    79   74   80 1   
    80   74   81 1   
    81   74   82 1   
    82   75   79 1   
    83   83   84 1   
    84   83   91 1   
    85   84   85 1   
    86   84   87 1   
    87   84   92 1   
    88   85   86 2   
    89   85  102 1   
    90   87   88 1   
    91   87   89 1   
    92   87   93 1   
    93   88   90 1   
    94   88   94 1   
    95   88   95 1   
    96   89   96 1   
    97   89   97 1   
    98   89   98 1   
    99   90   99 1   
   100   90  100 1   
   101   90  101 1   
   102  102  103 1   
   103  102  110 1   
   104  103  104 1   
   105  103  106 1   
   106  103  111 1   
   107  104  105 2   
   108  104  114 1   
   109  106  107 1   
   110  106  112 1   
   111  106  113 1   
   112  107  108 1   
   113  107  109 1   
   114  114  115 1   
   115  114  125 1   
   116  115  116 1   
   117  115  118 1   
   118  115  126 1   
   119  116  117 2   
   120  116  134 1   
   121  118  119 1   
   122  118  127 1   
   123  118  128 1   
   124  119  120 ar  
   125  119  121 ar  
   126  120  122 ar  
   127  120  129 1   
   128  121  123 ar  
   129  121  130 1   
   130  122  124 ar  
   131  122  131 1   
   132  123  124 ar  
   133  123  132 1   
   134  124  133 1   
   135  134  135 1   
   136  134  140 1   
   137  135  136 1   
   138  135  138 1   
   139  135  141 1   
   140  136  137 2   
   141  136  148 1   
   142  138  139 1   
   143  138  142 1   
   144  138  143 1   
   145  139  140 1   
   146  139  144 1   
   147  139  145 1   
   148  140  146 1   
   149  140  147 1   
   150  148  149 1   
   151  148  157 1   
   152  149  150 1   
   153  149  152 1   
   154  149  158 1   
   155  150  151 2   
   156  150  163 1   
   157  152  153 1   
   158  152  159 1   
   159  152  160 1   
   160  153  154 1   
   161  153  161 1   
   162  153  162 1   
   163  154  155 1   
   164  154  156 1   
   165  163  164 1   
   166  163  168 1   
   167  164  165 1   
   168  164  166 1   
   169  164  167 1   
   170  170  171 1   
   171  170  172 1   
@<TRIPOS>SUBSTRUCTURE
     1 MOL         1 TEMP              0 ****  ****    0 ROOT
