@<TRIPOS>MOLECULE
MOL
  175   173     1     0     0
SMALL
resp


@<TRIPOS>ATOM
      1 C1         -0.9850    3.4940    6.0410 c3        1 MOL     -0.403184
      2 C2         -1.0450    2.9730    4.5700 c         1 MOL      0.685471
      3 O1         -0.3330    3.3700    3.6550 o         1 MOL     -0.588991
      4 H1         -1.8660    3.1520    6.5830 hc        1 MOL      0.100009
      5 H2         -0.0880    3.1100    6.5270 hc        1 MOL      0.100009
      6 H3         -0.9600    4.5840    6.0400 hc        1 MOL      0.100009
      7 N1         -2.0450    2.1610    4.2790 n         1 MOL     -0.459959
      8 C3         -2.4510    1.8070    2.8930 c3        1 MOL     -0.036482
      9 C4         -3.0650    3.0620    2.1190 c         1 MOL      0.519937
     10 O2         -4.1700    3.5290    2.4510 o         1 MOL     -0.570359
     11 C5         -3.5470    0.7430    3.0420 c3        1 MOL     -0.185868
     12 C6         -4.1990    0.3710    1.6750 c         1 MOL      0.804286
     13 O3         -5.0640   -0.5080    1.6370 o         1 MOL     -0.703223
     14 O4         -3.7060    0.7860    0.5750 o         1 MOL     -0.703223
     15 H4         -2.5400    1.7420    5.0500 hn        1 MOL      0.295685
     16 H5         -1.5490    1.3920    2.4570 h1        1 MOL     -0.007509
     17 H6         -4.3350    0.9430    3.7680 hc        1 MOL      0.054016
     18 H7         -3.0320   -0.1260    3.4520 hc        1 MOL      0.054016
     19 N2         -2.4010    3.6720    1.1330 n         1 MOL     -0.108546
     20 C7         -2.5390    4.9990    0.5670 c3        1 MOL     -0.008746
     21 C8         -3.5400    5.2240   -0.5110 c         1 MOL      0.510213
     22 O5         -4.2910    6.1750   -0.3970 o         1 MOL     -0.585981
     23 C9         -1.1190    5.4620    0.0280 c3        1 MOL     -0.367807
     24 H8         -1.5710    3.2080    0.7850 hn        1 MOL      0.223561
     25 H9         -2.8220    5.6710    1.3820 h1        1 MOL      0.072668
     26 H10        -1.0300    6.4210   -0.4630 hc        1 MOL      0.104394
     27 H11        -0.4150    5.4160    0.8670 hc        1 MOL      0.104394
     28 H12        -0.8240    4.7370   -0.7330 hc        1 MOL      0.104394
     29 N3         -3.8870    4.2010   -1.2940 n         1 MOL     -0.308802
     30 C10        -4.9960    4.0630   -2.2950 c3        1 MOL      0.029008
     31 C11        -6.2380    3.2260   -1.6830 c         1 MOL      0.449832
     32 O6         -7.3150    3.2430   -2.2360 o         1 MOL     -0.559039
     33 C12        -4.4840    3.4950   -3.6270 c3        1 MOL     -0.306635
     34 C13        -3.6590    2.2150   -3.5330 c         1 MOL      0.794432
     35 O7         -3.0790    1.7960   -4.5740 o         1 MOL     -0.740369
     36 O8         -3.5310    1.6660   -2.4090 o         1 MOL     -0.740369
     37 H13        -3.3040    3.3790   -1.2010 hn        1 MOL      0.220777
     38 H14        -5.4910    5.0000   -2.5240 h1        1 MOL      0.091544
     39 H15        -4.0150    4.1950   -4.3250 hc        1 MOL      0.089651
     40 H16        -5.3430    3.1220   -4.1960 hc        1 MOL      0.089651
     41 N4         -6.0840    2.4830   -0.5920 n         1 MOL     -0.125164
     42 C14        -7.1750    1.7480    0.1010 c3        1 MOL     -0.022410
     43 C15        -7.6300    0.4400   -0.6050 c         1 MOL      0.599743
     44 O9         -8.8040    0.3070   -0.7660 o         1 MOL     -0.586415
     45 H17        -5.1620    2.4520   -0.1860 hn        1 MOL      0.103848
     46 H18        -8.1000    2.3150    0.2180 h1        1 MOL      0.047941
     47 H19        -6.9200    1.5190    1.1290 h1        1 MOL      0.047941
     48 N5         -6.7960   -0.5780   -0.9020 n         1 MOL     -0.257669
     49 C16        -7.2180   -1.8170   -1.4820 c3        1 MOL      0.038629
     50 C17        -7.0420   -3.0580   -0.5650 c         1 MOL      0.395449
     51 O10        -7.4970   -4.1850   -0.8440 o         1 MOL     -0.548756
     52 C18        -6.4460   -1.9490   -2.9230 c3        1 MOL     -0.139725
     53 C19        -4.9360   -1.9090   -2.9040 c         1 MOL      0.572798
     54 N6         -4.2810   -2.2570   -4.0340 n         1 MOL     -0.726746
     55 O11        -4.3260   -1.3890   -1.9320 o         1 MOL     -0.517415
     56 H20        -5.8140   -0.5350   -0.6500 hn        1 MOL      0.061083
     57 H21        -8.2650   -1.7220   -1.7580 h1        1 MOL      0.093302
     58 H22        -6.8180   -1.2070   -3.6240 hc        1 MOL      0.053183
     59 H23        -6.8010   -2.9230   -3.2650 hc        1 MOL      0.053183
     60 H24        -4.7940   -2.5990   -4.8370 hn        1 MOL      0.352987
     61 H25        -3.2780   -2.1790   -4.0190 hn        1 MOL      0.352987
     62 N7         -6.5570   -2.7540    0.6240 n         1 MOL     -0.140455
     63 C20        -6.4050   -3.6870    1.7970 c3        1 MOL     -0.209777
     64 C21        -5.0080   -4.4240    1.8950 c         1 MOL      0.565053
     65 O12        -4.9270   -5.5600    2.3990 o         1 MOL     -0.562786
     66 H26        -6.2760   -1.7960    0.7770 hn        1 MOL      0.171378
     67 H27        -7.2730   -4.3440    1.6820 h1        1 MOL      0.115408
     68 H28        -6.6290   -3.1270    2.6990 h1        1 MOL      0.115408
     69 N8         -3.9560   -3.7030    1.4220 n         1 MOL     -0.279227
     70 C22        -2.5050   -4.1190    1.5240 c3        1 MOL     -0.276884
     71 C23        -1.5660   -2.8440    1.4810 c         1 MOL      0.763758
     72 O13        -1.9910   -1.8380    0.9310 o         1 MOL     -0.544659
     73 C24        -2.0430   -4.9380    0.3040 c3        1 MOL      0.494910
     74 C25        -2.3760   -6.4390    0.4680 c3        1 MOL     -0.537553
     75 O14        -2.5370   -4.3460   -0.9420 oh        1 MOL     -0.715759
     76 H29        -4.0570   -2.7680    1.0530 hn        1 MOL      0.187808
     77 H30        -2.2720   -4.7930    2.3520 h1        1 MOL      0.131335
     78 H31        -0.9570   -4.9850    0.2910 h1        1 MOL      0.051042
     79 H32        -3.4020   -4.7280   -1.1340 ho        1 MOL      0.429996
     80 H33        -3.4310   -6.5400    0.7120 hc        1 MOL      0.137400
     81 H34        -2.2740   -7.0500   -0.4340 hc        1 MOL      0.137400
     82 H35        -1.7130   -6.7760    1.2620 hc        1 MOL      0.137400
     83 N9         -0.3290   -3.0470    1.9500 n         1 MOL     -0.657573
     84 C26         0.8430   -2.1650    1.7120 c3        1 MOL     -0.027336
     85 C27         1.7390   -2.8220    0.6290 c         1 MOL      0.547859
     86 O15         2.1100   -3.9630    0.7270 o         1 MOL     -0.585433
     87 C28         1.5760   -1.9490    3.0740 c3        1 MOL      0.461640
     88 C29         2.1030   -3.2100    3.7790 c3        1 MOL      0.060415
     89 C30         0.6530   -1.1170    4.0100 c3        1 MOL     -0.518138
     90 C31         2.6230   -3.0010    5.2340 c3        1 MOL     -0.275997
     91 H36        -0.1250   -3.9900    2.2390 hn        1 MOL      0.294087
     92 H37         0.5030   -1.1990    1.3440 h1        1 MOL      0.070087
     93 H38         2.4400   -1.3490    2.7860 hc        1 MOL     -0.130558
     94 H39         2.8560   -3.5750    3.0890 hc        1 MOL     -0.015146
     95 H40         1.2720   -3.9160    3.7810 hc        1 MOL     -0.015146
     96 H41         1.3040   -0.3840    4.4770 hc        1 MOL      0.120213
     97 H42        -0.0490   -0.5190    3.4320 hc        1 MOL      0.120213
     98 H43         0.1170   -1.7720    4.7020 hc        1 MOL      0.120213
     99 H44         3.1140   -3.9650    5.3800 hc        1 MOL      0.060443
    100 H45         3.3080   -2.1570    5.2490 hc        1 MOL      0.060443
    101 H46         1.7640   -3.0360    5.9090 hc        1 MOL      0.060443
    102 N10         2.0300   -2.0320   -0.4230 n         1 MOL     -0.454359
    103 C32         3.1490   -2.2040   -1.3890 c3        1 MOL      0.359978
    104 C33         4.4240   -1.5010   -0.8140 c         1 MOL      0.323937
    105 O16         4.2650   -0.8210    0.1970 o         1 MOL     -0.377042
    106 C34         2.7290   -1.6400   -2.7230 c3        1 MOL     -0.397557
    107 C35         3.6010   -2.0410   -3.8660 c         1 MOL      0.676137
    108 O17         3.3470   -1.5670   -5.0100 o         1 MOL     -0.694149
    109 O18         4.6150   -2.7530   -3.6110 o         1 MOL     -0.694149
    110 H47         1.5930   -1.1190   -0.4620 hn        1 MOL      0.229473
    111 H48         3.3860   -3.2670   -1.4410 h1        1 MOL      0.012663
    112 H49         2.8030   -0.5600   -2.6140 hc        1 MOL      0.115219
    113 H50         1.7060   -2.0240   -2.8240 hc        1 MOL      0.115219
    114 N11         5.6280   -1.5110   -1.4430 n         1 MOL     -0.448987
    115 C36         6.8970   -1.0470   -0.9050 c3        1 MOL      0.338695
    116 C37         6.9100    0.4250   -0.3840 c         1 MOL      0.359349
    117 O19         7.1900    0.5500    0.8120 o         1 MOL     -0.533676
    118 C38         8.0580   -1.4420   -1.8280 c3        1 MOL     -0.212639
    119 C39         9.4860   -1.2020   -1.4280 ca        1 MOL      0.065042
    120 C40         9.9560   -1.8340   -0.2740 ca        1 MOL     -0.136950
    121 C41        10.3260   -0.4060   -2.2080 ca        1 MOL     -0.136950
    122 C42        11.3120   -1.6530    0.0730 ca        1 MOL     -0.108969
    123 C43        11.6270   -0.2910   -1.8400 ca        1 MOL     -0.108969
    124 C44        12.1790   -0.8300   -0.6470 ca        1 MOL     -0.120791
    125 H51         5.6880   -2.1140   -2.2580 hn        1 MOL      0.221838
    126 H52         6.9910   -1.6830   -0.0250 h1        1 MOL      0.032606
    127 H53         7.9120   -1.0370   -2.8280 hc        1 MOL      0.086293
    128 H54         8.0160   -2.5160   -2.0230 hc        1 MOL      0.086293
    129 H55         9.2530   -2.3680    0.3410 ha        1 MOL      0.106283
    130 H56         9.9100   -0.0190   -3.1280 ha        1 MOL      0.106283
    131 H57        11.7020   -2.1800    0.9400 ha        1 MOL      0.091901
    132 H58        12.3280    0.2120   -2.4930 ha        1 MOL      0.091901
    133 H59        13.2380   -0.7560   -0.4310 ha        1 MOL      0.105215
    134 N12         6.5360    1.4400   -1.1500 n         1 MOL     -0.091838
    135 C45         6.5400    2.8030   -0.7620 c3        1 MOL      0.015109
    136 C46         5.6080    2.9930    0.4470 c         1 MOL      0.400366
    137 O20         5.8990    3.8990    1.2400 o         1 MOL     -0.530129
    138 C47         6.1390    3.6300   -1.9800 c3        1 MOL     -0.093254
    139 C48         6.6250    2.7620   -3.0640 c3        1 MOL      0.022094
    140 C49         6.1540    1.4210   -2.5480 c3        1 MOL     -0.136754
    141 H60         7.5280    3.0370   -0.3610 h1        1 MOL      0.075972
    142 H61         5.1030    3.9680   -1.9640 hc        1 MOL      0.049404
    143 H62         6.8200    4.4760   -2.0340 hc        1 MOL      0.049404
    144 H63         6.2230    3.0020   -4.0490 hc        1 MOL      0.022898
    145 H64         7.7010    2.7810   -3.2120 hc        1 MOL      0.022898
    146 H65         5.0710    1.3130   -2.5970 h1        1 MOL      0.088698
    147 H66         6.7040    0.6960   -3.1460 h1        1 MOL      0.088698
    148 N13         4.4450    2.3050    0.6140 n         1 MOL     -0.232258
    149 C50         3.5980    2.2360    1.7660 c3        1 MOL     -0.217065
    150 C51         4.1530    1.4540    3.0010 c         1 MOL      0.446462
    151 O21         3.7950    1.7570    4.1550 o         1 MOL     -0.583656
    152 C52         2.2000    1.6870    1.4490 c3        1 MOL      0.176924
    153 C53         1.7020    2.1370    0.0650 c3        1 MOL     -0.243187
    154 C54         0.3180    1.4910   -0.3060 c         1 MOL      0.897545
    155 O22         0.3030    0.2540   -0.4590 o         1 MOL     -0.829287
    156 O23        -0.7290    2.1200   -0.4380 o         1 MOL     -0.829287
    157 H67         4.2980    1.5340   -0.0180 hn        1 MOL      0.215540
    158 H68         3.4570    3.2760    2.0750 h1        1 MOL      0.132093
    159 H69         1.5210    2.0850    2.2010 hc        1 MOL      0.042440
    160 H70         2.2900    0.6030    1.5710 hc        1 MOL      0.042440
    161 H71         2.3330    1.8940   -0.7850 hc        1 MOL      0.044197
    162 H72         1.5770    3.2240    0.1070 hc        1 MOL      0.044197
    163 N14         4.9940    0.4720    2.7900 n         1 MOL      0.085432
    164 C55         5.7510   -0.3010    3.7680 c3        1 MOL     -0.294792
    165 H73         6.8150   -0.1050    3.6400 h1        1 MOL      0.101270
    166 H74         5.4480   -0.0130    4.7750 h1        1 MOL      0.101270
    167 H75         5.5580   -1.3640    3.6200 h1        1 MOL      0.101270
    168 H76         5.1190    0.1310    1.8470 hn        1 MOL      0.036987
    169 Ca1        -2.1090   -0.1010   -1.1560 Ca        1 MOL      1.774450
    170 O24        -0.8910    0.7940   -3.3100 oh        1 MOL     -0.884103
    171 H77        -0.1370    1.2450   -3.6750 ho        1 MOL      0.422239
    172 H78        -1.6400    1.1290   -3.8070 ho        1 MOL      0.422239
    173 O25        -1.5670   -2.4280   -2.7660 oh        1 MOL     -0.884103
    174 H79        -1.7880   -3.2500   -2.3370 ho        1 MOL      0.422239
    175 H80        -1.1730   -2.6900   -3.6020 ho        1 MOL      0.422239
@<TRIPOS>BOND
     1    1    2 1   
     2    1    4 1   
     3    1    5 1   
     4    1    6 1   
     5    2    3 2   
     6    2    7 1   
     7    7    8 1   
     8    7   15 1   
     9    8    9 1   
    10    8   11 1   
    11    8   16 1   
    12    9   10 2   
    13    9   19 1   
    14   11   12 1   
    15   11   17 1   
    16   11   18 1   
    17   12   13 1   
    18   12   14 1   
    19   19   20 1   
    20   19   24 1   
    21   20   21 1   
    22   20   23 1   
    23   20   25 1   
    24   21   22 2   
    25   21   29 1   
    26   23   26 1   
    27   23   27 1   
    28   23   28 1   
    29   29   30 1   
    30   29   37 1   
    31   30   31 1   
    32   30   33 1   
    33   30   38 1   
    34   31   32 2   
    35   31   41 1   
    36   33   34 1   
    37   33   39 1   
    38   33   40 1   
    39   34   35 1   
    40   34   36 1   
    41   41   42 1   
    42   41   45 1   
    43   42   43 1   
    44   42   46 1   
    45   42   47 1   
    46   43   44 2   
    47   43   48 1   
    48   48   49 1   
    49   48   56 1   
    50   49   50 1   
    51   49   52 1   
    52   49   57 1   
    53   50   51 2   
    54   50   62 1   
    55   52   53 1   
    56   52   58 1   
    57   52   59 1   
    58   53   54 1   
    59   53   55 2   
    60   54   60 1   
    61   54   61 1   
    62   62   63 1   
    63   62   66 1   
    64   63   64 1   
    65   63   67 1   
    66   63   68 1   
    67   64   65 2   
    68   64   69 1   
    69   69   70 1   
    70   69   76 1   
    71   70   71 1   
    72   70   73 1   
    73   70   77 1   
    74   71   72 2   
    75   71   83 1   
    76   73   74 1   
    77   73   75 1   
    78   73   78 1   
    79   74   80 1   
    80   74   81 1   
    81   74   82 1   
    82   75   79 1   
    83   83   84 1   
    84   83   91 1   
    85   84   85 1   
    86   84   87 1   
    87   84   92 1   
    88   85   86 2   
    89   85  102 1   
    90   87   88 1   
    91   87   89 1   
    92   87   93 1   
    93   88   90 1   
    94   88   94 1   
    95   88   95 1   
    96   89   96 1   
    97   89   97 1   
    98   89   98 1   
    99   90   99 1   
   100   90  100 1   
   101   90  101 1   
   102  102  103 1   
   103  102  110 1   
   104  103  104 1   
   105  103  106 1   
   106  103  111 1   
   107  104  105 2   
   108  104  114 1   
   109  106  107 1   
   110  106  112 1   
   111  106  113 1   
   112  107  108 1   
   113  107  109 1   
   114  114  115 1   
   115  114  125 1   
   116  115  116 1   
   117  115  118 1   
   118  115  126 1   
   119  116  117 2   
   120  116  134 1   
   121  118  119 1   
   122  118  127 1   
   123  118  128 1   
   124  119  120 ar  
   125  119  121 ar  
   126  120  122 ar  
   127  120  129 1   
   128  121  123 ar  
   129  121  130 1   
   130  122  124 ar  
   131  122  131 1   
   132  123  124 ar  
   133  123  132 1   
   134  124  133 1   
   135  134  135 1   
   136  134  140 1   
   137  135  136 1   
   138  135  138 1   
   139  135  141 1   
   140  136  137 2   
   141  136  148 1   
   142  138  139 1   
   143  138  142 1   
   144  138  143 1   
   145  139  140 1   
   146  139  144 1   
   147  139  145 1   
   148  140  146 1   
   149  140  147 1   
   150  148  149 1   
   151  148  157 1   
   152  149  150 1   
   153  149  152 1   
   154  149  158 1   
   155  150  151 2   
   156  150  163 1   
   157  152  153 1   
   158  152  159 1   
   159  152  160 1   
   160  153  154 1   
   161  153  161 1   
   162  153  162 1   
   163  154  155 1   
   164  154  156 1   
   165  163  164 1   
   166  163  168 1   
   167  164  165 1   
   168  164  166 1   
   169  164  167 1   
   170  170  171 1   
   171  170  172 1   
   172  173  174 1   
   173  173  175 1   
@<TRIPOS>SUBSTRUCTURE
     1 MOL         1 TEMP              0 ****  ****    0 ROOT
