@<TRIPOS>MOLECULE
MOL
  189   185     1     0     0
SMALL
resp


@<TRIPOS>ATOM
      1 C1         -0.1450    4.0740    5.9670 c3        1 MOL     -0.383958
      2 C2         -0.6990    3.5290    4.6480 c         1 MOL      0.683915
      3 O1         -0.7050    2.3090    4.4490 o         1 MOL     -0.583541
      4 H1         -0.0360    5.1560    5.8950 hc        1 MOL      0.099365
      5 H2         -0.8320    3.8310    6.7780 hc        1 MOL      0.099365
      6 H3          0.8280    3.6230    6.1660 hc        1 MOL      0.099365
      7 N1         -1.2160    4.3530    3.7130 n         1 MOL     -0.520648
      8 C3         -1.8140    3.9420    2.4110 c3        1 MOL      0.172248
      9 C4         -1.6360    5.0730    1.3330 c         1 MOL      0.548327
     10 O2         -1.8410    6.2120    1.5240 o         1 MOL     -0.555098
     11 C5         -3.3170    3.7530    2.7070 c3        1 MOL     -0.297995
     12 C6         -4.1030    3.3130    1.5020 c         1 MOL      0.930600
     13 O3         -5.2960    3.5980    1.4340 o         1 MOL     -0.734130
     14 O4         -3.4530    2.6270    0.7110 o         1 MOL     -0.734130
     15 H4         -1.2540    5.3330    3.9610 hn        1 MOL      0.278018
     16 H5         -1.2590    3.0660    2.0670 h1        1 MOL      0.078572
     17 H6         -3.7450    4.7250    2.9710 hc        1 MOL      0.031366
     18 H7         -3.5560    3.0530    3.5000 hc        1 MOL      0.031366
     19 N2         -1.2870    4.6400    0.0890 n         1 MOL     -0.458699
     20 C7         -1.0340    5.4800   -1.0140 c3        1 MOL      0.086745
     21 C8         -1.7560    4.9230   -2.2480 c         1 MOL      0.475012
     22 O5         -1.4190    5.2970   -3.3700 o         1 MOL     -0.539821
     23 C9          0.4900    5.7460   -1.2810 c3        1 MOL      0.017816
     24 C10         1.4960    5.8590   -0.0100 c3        1 MOL      0.231045
     25 C11         0.6310    7.1280   -2.0300 c3        1 MOL     -0.296023
     26 C12         2.9290    5.7690   -0.4550 c3        1 MOL     -0.153368
     27 H8         -1.2310    3.6510   -0.1170 hn        1 MOL      0.220586
     28 H9         -1.4980    6.4270   -0.7300 h1        1 MOL      0.069179
     29 H10         0.9100    4.9570   -1.9030 hc        1 MOL      0.098095
     30 H11         1.2610    5.1620    0.7960 hc        1 MOL     -0.079592
     31 H12         1.3500    6.8320    0.4610 hc        1 MOL     -0.079592
     32 H13         0.7790    7.9640   -1.3400 hc        1 MOL      0.056914
     33 H14         1.5650    7.1200   -2.5990 hc        1 MOL      0.056914
     34 H15        -0.2440    7.4240   -2.6080 hc        1 MOL      0.056914
     35 H16         3.1470    6.4490   -1.2810 hc        1 MOL      0.034620
     36 H17         3.5610    6.0790    0.3670 hc        1 MOL      0.034620
     37 H18         3.1130    4.7360   -0.7630 hc        1 MOL      0.034620
     38 N3         -2.6520    3.9630   -2.1540 n         1 MOL     -0.374417
     39 C13        -3.4070    3.4300   -3.3350 c3        1 MOL     -0.068300
     40 C14        -4.7970    2.8720   -3.0990 c         1 MOL      0.434136
     41 O6         -5.4160    2.5440   -4.0620 o         1 MOL     -0.522957
     42 C15        -2.5660    2.3700   -4.0060 c3        1 MOL     -0.187072
     43 C16        -2.1340    1.1880   -3.1260 c         1 MOL      0.846811
     44 O7         -2.8320    0.9250   -2.1280 o         1 MOL     -0.745608
     45 O8         -1.1680    0.4660   -3.4810 o         1 MOL     -0.745608
     46 H19        -2.9010    3.6480   -1.2210 hn        1 MOL      0.242886
     47 H20        -3.5650    4.3280   -3.9460 h1        1 MOL      0.104390
     48 H21        -1.7180    2.9060   -4.4180 hc        1 MOL      0.056937
     49 H22        -3.0340    1.9170   -4.8750 hc        1 MOL      0.056937
     50 N4         -5.3200    2.8040   -1.8970 n         1 MOL     -0.016081
     51 C17        -6.7690    2.7070   -1.6200 c3        1 MOL     -0.236524
     52 C18        -7.3320    1.3330   -2.0050 c         1 MOL      0.664742
     53 O9         -8.2430    1.1850   -2.7540 o         1 MOL     -0.564656
     54 H23        -4.7210    2.9790   -1.1090 hn        1 MOL      0.058887
     55 H24        -7.2810    3.3870   -2.3130 h1        1 MOL      0.080998
     56 H25        -6.8870    2.9050   -0.5540 h1        1 MOL      0.080998
     57 N5         -6.7290    0.2920   -1.4360 n         1 MOL     -0.624423
     58 C19        -7.0340   -1.0650   -1.9970 c3        1 MOL      0.012582
     59 C20        -7.3100   -2.1280   -0.9030 c         1 MOL      0.416677
     60 O10        -7.8300   -3.2160   -1.1700 o         1 MOL     -0.520169
     61 C21        -5.8330   -1.4440   -2.9290 c3        1 MOL     -0.184467
     62 C22        -4.5010   -1.7480   -2.2500 c         1 MOL      0.668238
     63 O11        -4.2800   -1.3690   -1.0640 o         1 MOL     -0.674662
     64 O12        -3.6170   -2.4290   -2.8470 o         1 MOL     -0.674662
     65 H26        -5.9080    0.3630   -0.8520 hn        1 MOL      0.348310
     66 H27        -7.8780   -1.0750   -2.6870 h1        1 MOL      0.135581
     67 H28        -5.5940   -0.6590   -3.6480 hc        1 MOL      0.075992
     68 H29        -6.1010   -2.2710   -3.5890 hc        1 MOL      0.075992
     69 N6         -7.1530   -1.7590    0.3960 n         1 MOL     -0.191372
     70 C23        -7.3120   -2.6160    1.5740 c3        1 MOL     -0.317295
     71 C24        -6.1720   -3.6380    1.8180 c         1 MOL      0.593450
     72 O13        -6.3100   -4.6600    2.5290 o         1 MOL     -0.595051
     73 H30        -6.8070   -0.8330    0.5740 hn        1 MOL      0.197940
     74 H31        -8.2320   -3.1850    1.5330 h1        1 MOL      0.127362
     75 H32        -7.2060   -2.0540    2.5070 h1        1 MOL      0.127362
     76 N7         -5.0110   -3.4450    1.1590 n         1 MOL     -0.322965
     77 C25        -3.7920   -4.2370    1.3190 c3        1 MOL     -0.054238
     78 C26        -2.6290   -3.3010    1.6850 c         1 MOL      0.554893
     79 O14        -2.7720   -2.1160    1.5690 o         1 MOL     -0.616334
     80 C27        -3.5020   -5.0650    0.0260 c3        1 MOL     -0.049434
     81 C28        -4.6700   -6.0030   -0.3530 c3        1 MOL     -0.378179
     82 C29        -4.0940   -7.0990   -1.2680 c         1 MOL      0.707874
     83 N8         -3.9930   -6.9070   -2.5810 n         1 MOL     -0.818399
     84 O15        -3.7210   -8.1280   -0.7740 o         1 MOL     -0.597767
     85 H33        -4.9600   -2.7730    0.4080 hn        1 MOL      0.294653
     86 H34        -3.8060   -4.8540    2.2210 h1        1 MOL      0.076837
     87 H35        -2.5640   -5.6050    0.0680 hc        1 MOL      0.082517
     88 H36        -3.3160   -4.3920   -0.8170 hc        1 MOL      0.082517
     89 H37        -5.6150   -5.5560   -0.6730 hc        1 MOL      0.128617
     90 H38        -4.9940   -6.4840    0.5630 hc        1 MOL      0.128617
     91 H39        -4.3120   -6.0340   -2.9920 hn        1 MOL      0.367095
     92 H40        -3.4640   -7.5750   -3.1270 hn        1 MOL      0.367095
     93 N9         -1.5310   -3.8300    2.1970 n         1 MOL     -0.436551
     94 C30        -0.2690   -3.0970    2.3600 c3        1 MOL      0.171323
     95 C31         0.7330   -3.4020    1.2180 c         1 MOL      0.399250
     96 O16         1.0010   -4.6030    1.0000 o         1 MOL     -0.568961
     97 C32         0.2580   -3.2680    3.7550 c3        1 MOL      0.345620
     98 C33         1.3840   -2.2800    4.1780 c3        1 MOL     -0.364116
     99 C34        -0.8190   -3.1320    4.8340 c3        1 MOL     -0.364116
    100 H41        -1.5460   -4.8310    2.3250 hn        1 MOL      0.247063
    101 H42        -0.4230   -2.0230    2.2900 h1        1 MOL      0.076452
    102 H43         0.7310   -4.2380    3.8620 hc        1 MOL     -0.069991
    103 H44         1.0490   -1.2400    4.2020 hc        1 MOL      0.072459
    104 H45         1.7140   -2.5290    5.1780 hc        1 MOL      0.072459
    105 H46         2.2080   -2.4080    3.4770 hc        1 MOL      0.072459
    106 H47        -0.4510   -3.3420    5.8330 hc        1 MOL      0.072459
    107 H48        -1.1780   -2.1060    4.8950 hc        1 MOL      0.072459
    108 H49        -1.5760   -3.9020    4.6500 hc        1 MOL      0.072459
    109 N10         1.6020   -2.4650    0.6890 n         1 MOL     -0.371591
    110 C35         2.7520   -2.7080   -0.1140 c3        1 MOL      0.296263
    111 C36         4.0750   -2.4930    0.6040 c         1 MOL      0.113112
    112 O17         4.0750   -1.9170    1.7150 o         1 MOL     -0.262241
    113 C37         2.5350   -1.7620   -1.3280 c3        1 MOL     -0.317700
    114 C38         3.7930   -1.8100   -2.2970 c         1 MOL      0.668297
    115 N11         4.0390   -2.8900   -2.9690 n         1 MOL     -0.685101
    116 O18         4.6550   -0.9690   -2.2180 o         1 MOL     -0.525993
    117 H50         1.3940   -1.4870    0.7470 hn        1 MOL      0.300212
    118 H51         2.8200   -3.6900   -0.5830 h1        1 MOL      0.017839
    119 H52         2.5570   -0.7550   -0.9080 hc        1 MOL      0.121425
    120 H53         1.6000   -1.8760   -1.8730 hc        1 MOL      0.121425
    121 H54         3.3440   -3.5760   -3.2200 hn        1 MOL      0.295632
    122 H55         4.9760   -3.0120   -3.3270 hn        1 MOL      0.295632
    123 N12         5.2320   -2.9810    0.0720 n         1 MOL     -0.110423
    124 C39         6.5280   -2.8390    0.6310 c3        1 MOL      0.215374
    125 C40         7.0590   -1.4570    0.8180 c         1 MOL      0.420210
    126 O19         7.9170   -1.1810    1.6590 o         1 MOL     -0.596092
    127 C41         7.5290   -3.6980   -0.1110 c3        1 MOL     -0.354303
    128 C42         7.7830   -3.2500   -1.6140 ca        1 MOL      0.313920
    129 C43         7.0980   -3.8690   -2.7320 ca        1 MOL     -0.384724
    130 C44         8.6440   -2.2010   -1.9790 ca        1 MOL     -0.384724
    131 C45         7.2030   -3.4050   -4.0470 ca        1 MOL     -0.193194
    132 C46         8.8700   -1.8050   -3.2640 ca        1 MOL     -0.193194
    133 C47         8.1320   -2.3860   -4.3000 ca        1 MOL      0.330401
    134 O20         8.3720   -2.0510   -5.5690 oh        1 MOL     -0.437032
    135 H56         5.0640   -3.6040   -0.7050 hn        1 MOL      0.102204
    136 H57         6.4000   -3.2560    1.6340 h1        1 MOL      0.020283
    137 H58         7.0800   -4.6930   -0.0840 hc        1 MOL      0.083330
    138 H59         8.4760   -3.6560    0.4230 hc        1 MOL      0.083330
    139 H60         6.3690   -4.6320   -2.4770 ha        1 MOL      0.181919
    140 H61         9.1750   -1.7180   -1.1800 ha        1 MOL      0.181919
    141 H62         6.6220   -3.8560   -4.8330 ha        1 MOL      0.151821
    142 H63         9.5880   -1.0280   -3.5020 ha        1 MOL      0.151821
    143 H64         7.8530   -2.6550   -6.1030 ho        1 MOL      0.316844
    144 N13         6.5950   -0.4670    0.0100 n         1 MOL     -0.073609
    145 C48         6.8770    1.0050    0.1810 c3        1 MOL     -0.095997
    146 C49         6.0160    1.6500    1.3060 c         1 MOL      0.535111
    147 O21         6.3490    2.6960    1.6630 o         1 MOL     -0.502540
    148 C50         6.7520    1.8450   -1.1230 c3        1 MOL     -0.170352
    149 C51         5.3940    2.5580   -1.3960 c3        1 MOL     -0.130865
    150 C52         5.5270    3.1830   -2.7210 c         1 MOL      0.731607
    151 O22         6.2910    4.1760   -2.9410 o         1 MOL     -0.735403
    152 O23         4.9480    2.6930   -3.6930 o         1 MOL     -0.735403
    153 H65         6.0350   -0.6850   -0.8070 hn        1 MOL      0.238204
    154 H66         7.8820    1.0460    0.6060 h1        1 MOL      0.068682
    155 H67         7.1430    1.2060   -1.9080 hc        1 MOL      0.072706
    156 H68         7.4260    2.6970   -1.0490 hc        1 MOL      0.072706
    157 H69         4.9550    3.2400   -0.6720 hc        1 MOL      0.012524
    158 H70         4.6970    1.7220   -1.4630 hc        1 MOL      0.012524
    159 N14         4.8820    1.0500    1.6590 n         1 MOL     -0.325043
    160 C53         3.9250    1.5100    2.6790 c3        1 MOL      0.062065
    161 C54         4.2840    0.9370    4.0920 c         1 MOL      0.351992
    162 O24         4.3830    1.6340    5.0900 o         1 MOL     -0.546062
    163 C55         2.4970    1.0740    2.3480 c3        1 MOL      0.204215
    164 C56         1.8760    1.7070    1.0480 c3        1 MOL     -0.380589
    165 C57         0.4320    1.1900    0.7660 c         1 MOL      0.731075
    166 O25        -0.3970    1.8650    0.1300 o         1 MOL     -0.677785
    167 O26         0.0910    0.0480    1.1180 o         1 MOL     -0.677785
    168 H71         4.5040    0.2980    1.0960 hn        1 MOL      0.142164
    169 H72         3.8770    2.5830    2.8930 h1        1 MOL      0.037532
    170 H73         1.8380    1.3350    3.1790 hc        1 MOL     -0.014918
    171 H74         2.4720   -0.0070    2.2040 hc        1 MOL     -0.014918
    172 H75         2.4400    1.3910    0.1740 hc        1 MOL      0.098373
    173 H76         1.9120    2.8000    1.1550 hc        1 MOL      0.098373
    174 N15         4.5950   -0.3540    4.0340 n         1 MOL      0.025228
    175 C58         5.0190   -1.1510    5.2090 c3        1 MOL     -0.298245
    176 H77         5.4210   -0.4860    5.9740 h1        1 MOL      0.095728
    177 H78         4.1610   -1.6900    5.6120 h1        1 MOL      0.095728
    178 H79         5.7870   -1.8640    4.9080 h1        1 MOL      0.095728
    179 H80         4.6910   -0.7810    3.1220 hn        1 MOL     -0.009662
    180 Ca1        -2.6870    0.1850    0.3810 Ca        1 MOL      1.745635
    181 O27        -2.2580    0.5860    3.0350 oh        1 MOL     -0.916347
    182 O28        -1.3830   -1.2980   -1.2540 oh        1 MOL     -0.916347
    183 H81        -1.7310    1.2150    3.5370 ho        1 MOL      0.424401
    184 H82        -0.8790   -0.8110   -1.9000 ho        1 MOL      0.424401
    185 H83        -2.6920    0.0510    3.6960 ho        1 MOL      0.424401
    186 H84        -1.9680   -1.8600   -1.7720 ho        1 MOL      0.424401
    187 O29        -4.9470    0.2280    1.5760 oh        1 MOL     -0.916347
    188 H85        -5.8920    0.1000    1.6680 ho        1 MOL      0.424401
    189 H86        -4.6190    0.2790    2.4770 ho        1 MOL      0.424401
@<TRIPOS>BOND
     1    1    2 1   
     2    1    4 1   
     3    1    5 1   
     4    1    6 1   
     5    2    3 2   
     6    2    7 1   
     7    7    8 1   
     8    7   15 1   
     9    8    9 1   
    10    8   11 1   
    11    8   16 1   
    12    9   10 2   
    13    9   19 1   
    14   11   12 1   
    15   11   17 1   
    16   11   18 1   
    17   12   13 1   
    18   12   14 1   
    19   19   20 1   
    20   19   27 1   
    21   20   21 1   
    22   20   23 1   
    23   20   28 1   
    24   21   22 2   
    25   21   38 1   
    26   23   24 1   
    27   23   25 1   
    28   23   29 1   
    29   24   26 1   
    30   24   30 1   
    31   24   31 1   
    32   25   32 1   
    33   25   33 1   
    34   25   34 1   
    35   26   35 1   
    36   26   36 1   
    37   26   37 1   
    38   38   39 1   
    39   38   46 1   
    40   39   40 1   
    41   39   42 1   
    42   39   47 1   
    43   40   41 2   
    44   40   50 1   
    45   42   43 1   
    46   42   48 1   
    47   42   49 1   
    48   43   44 1   
    49   43   45 1   
    50   50   51 1   
    51   50   54 1   
    52   51   52 1   
    53   51   55 1   
    54   51   56 1   
    55   52   53 2   
    56   52   57 1   
    57   57   58 1   
    58   57   65 1   
    59   58   59 1   
    60   58   61 1   
    61   58   66 1   
    62   59   60 2   
    63   59   69 1   
    64   61   62 1   
    65   61   67 1   
    66   61   68 1   
    67   62   63 1   
    68   62   64 1   
    69   69   70 1   
    70   69   73 1   
    71   70   71 1   
    72   70   74 1   
    73   70   75 1   
    74   71   72 2   
    75   71   76 1   
    76   76   77 1   
    77   76   85 1   
    78   77   78 1   
    79   77   80 1   
    80   77   86 1   
    81   78   79 2   
    82   78   93 1   
    83   80   81 1   
    84   80   87 1   
    85   80   88 1   
    86   81   82 1   
    87   81   89 1   
    88   81   90 1   
    89   82   83 1   
    90   82   84 2   
    91   83   91 1   
    92   83   92 1   
    93   93   94 1   
    94   93  100 1   
    95   94   95 1   
    96   94   97 1   
    97   94  101 1   
    98   95   96 2   
    99   95  109 1   
   100   97   98 1   
   101   97   99 1   
   102   97  102 1   
   103   98  103 1   
   104   98  104 1   
   105   98  105 1   
   106   99  106 1   
   107   99  107 1   
   108   99  108 1   
   109  109  110 1   
   110  109  117 1   
   111  110  111 1   
   112  110  113 1   
   113  110  118 1   
   114  111  112 2   
   115  111  123 1   
   116  113  114 1   
   117  113  119 1   
   118  113  120 1   
   119  114  115 1   
   120  114  116 2   
   121  115  121 1   
   122  115  122 1   
   123  123  124 1   
   124  123  135 1   
   125  124  125 1   
   126  124  127 1   
   127  124  136 1   
   128  125  126 2   
   129  125  144 1   
   130  127  128 1   
   131  127  137 1   
   132  127  138 1   
   133  128  129 ar  
   134  128  130 ar  
   135  129  131 ar  
   136  129  139 1   
   137  130  132 ar  
   138  130  140 1   
   139  131  133 ar  
   140  131  141 1   
   141  132  133 ar  
   142  132  142 1   
   143  133  134 1   
   144  134  143 1   
   145  144  145 1   
   146  144  153 1   
   147  145  146 1   
   148  145  148 1   
   149  145  154 1   
   150  146  147 2   
   151  146  159 1   
   152  148  149 1   
   153  148  155 1   
   154  148  156 1   
   155  149  150 1   
   156  149  157 1   
   157  149  158 1   
   158  150  151 1   
   159  150  152 1   
   160  159  160 1   
   161  159  168 1   
   162  160  161 1   
   163  160  163 1   
   164  160  169 1   
   165  161  162 2   
   166  161  174 1   
   167  163  164 1   
   168  163  170 1   
   169  163  171 1   
   170  164  165 1   
   171  164  172 1   
   172  164  173 1   
   173  165  166 1   
   174  165  167 1   
   175  174  175 1   
   176  174  179 1   
   177  175  176 1   
   178  175  177 1   
   179  175  178 1   
   180  181  183 1   
   181  181  185 1   
   182  182  184 1   
   183  182  186 1   
   184  187  188 1   
   185  187  189 1   
@<TRIPOS>SUBSTRUCTURE
     1 MOL         1 TEMP              0 ****  ****    0 ROOT
