@<TRIPOS>MOLECULE
MOL
  189   185     1     0     0
SMALL
resp


@<TRIPOS>ATOM
      1 C1          1.2760   -3.5640    6.0600 c3        1 MOL     -0.483130
      2 C2          1.4960   -3.1900    4.5560 c         1 MOL      0.819302
      3 O1          1.1630   -2.1280    4.0540 o         1 MOL     -0.643683
      4 H1          2.1730   -4.0450    6.4490 hc        1 MOL      0.124345
      5 H2          1.0710   -2.6610    6.6330 hc        1 MOL      0.124345
      6 H3          0.4320   -4.2490    6.1460 hc        1 MOL      0.124345
      7 N1          2.1700   -4.0720    3.7890 n         1 MOL     -0.726536
      8 C3          2.7440   -3.8170    2.4470 c3        1 MOL      0.376544
      9 C4          2.5260   -4.9800    1.5560 c         1 MOL      0.476769
     10 O2          2.7460   -6.1390    2.0220 o         1 MOL     -0.599555
     11 C5          4.2480   -3.5220    2.5110 c3        1 MOL     -0.267989
     12 C6          4.8490   -2.8870    1.2230 c         1 MOL      0.609150
     13 O3          4.2910   -2.0310    0.4900 o         1 MOL     -0.613069
     14 O4          5.9350   -3.4100    0.8230 o         1 MOL     -0.613069
     15 H4          2.4980   -4.9220    4.2150 hn        1 MOL      0.328316
     16 H5          2.2970   -2.9170    2.0070 h1        1 MOL      0.001600
     17 H6          4.6930   -4.4930    2.7190 hc        1 MOL      0.048073
     18 H7          4.4920   -2.8730    3.3410 hc        1 MOL      0.048073
     19 N2          2.2080   -4.6250    0.3200 n         1 MOL     -0.071228
     20 C7          2.1710   -5.5970   -0.7730 c3        1 MOL     -0.250563
     21 C8          2.9470   -5.1220   -2.0330 c         1 MOL      0.544397
     22 O5          3.2160   -5.9510   -2.9050 o         1 MOL     -0.568925
     23 C9          0.6510   -5.9600   -1.0690 c3        1 MOL      0.087006
     24 C10        -0.2260   -4.7880   -1.7370 c3        1 MOL     -0.099593
     25 C11        -0.0790   -6.4920    0.1920 c3        1 MOL     -0.011512
     26 C12        -1.7940   -4.9090   -1.8320 c3        1 MOL     -0.131134
     27 H8          1.9660   -3.6430    0.1920 hn        1 MOL      0.019291
     28 H9          2.6100   -6.5520   -0.4830 h1        1 MOL      0.146415
     29 H10         0.6450   -6.7710   -1.7970 hc        1 MOL      0.004088
     30 H11         0.1110   -4.5980   -2.7550 hc        1 MOL      0.059372
     31 H12        -0.0440   -3.7900   -1.3400 hc        1 MOL      0.059372
     32 H13        -0.2010   -5.7040    0.9290 hc        1 MOL     -0.003848
     33 H14        -1.0500   -6.9200   -0.0580 hc        1 MOL     -0.003848
     34 H15         0.4150   -7.3390    0.6480 hc        1 MOL     -0.003848
     35 H16        -2.3070   -4.0920   -2.3290 hc        1 MOL      0.032357
     36 H17        -1.9800   -5.8380   -2.3710 hc        1 MOL      0.032357
     37 H18        -2.1650   -4.9500   -0.8030 hc        1 MOL      0.032357
     38 N3          3.5400   -3.8930   -2.0490 n         1 MOL     -0.320547
     39 C13         4.0410   -3.3570   -3.3060 c3        1 MOL     -0.029941
     40 C14         5.3320   -2.6090   -3.1610 c         1 MOL      0.381269
     41 O6          5.9770   -2.2520   -4.1250 o         1 MOL     -0.537280
     42 C15         2.9270   -2.4970   -4.0000 c3        1 MOL     -0.200557
     43 C16         2.3980   -1.2340   -3.3210 c         1 MOL      0.745808
     44 O7          2.9030   -0.8680   -2.2130 o         1 MOL     -0.703159
     45 O8          1.4190   -0.5660   -3.7370 o         1 MOL     -0.703159
     46 H19         3.2810   -3.2770   -1.3000 hn        1 MOL      0.339159
     47 H20         4.3420   -4.1770   -3.9640 h1        1 MOL      0.117154
     48 H21         1.9970   -3.0610   -4.1130 hc        1 MOL      0.054801
     49 H22         3.1540   -2.2070   -5.0240 hc        1 MOL      0.054801
     50 N4          5.6880   -2.2110   -1.9020 n         1 MOL      0.027784
     51 C17         6.9500   -1.5830   -1.5230 c3        1 MOL     -0.062030
     52 C18         7.1710   -0.1930   -2.1390 c         1 MOL      0.345276
     53 O9          8.2830    0.1470   -2.5430 o         1 MOL     -0.581014
     54 H23         5.1380   -2.3710   -1.0700 hn        1 MOL     -0.101985
     55 H24         7.7310   -2.2520   -1.8990 h1        1 MOL      0.056955
     56 H25         7.0170   -1.5930   -0.4290 h1        1 MOL      0.056955
     57 N5          6.1440    0.5910   -2.2850 n         1 MOL     -0.061832
     58 C19         6.2990    1.9930   -2.7580 c3        1 MOL     -0.031332
     59 C20         6.8010    2.9410   -1.6550 c         1 MOL      0.483602
     60 O10         7.2960    4.0130   -1.9450 o         1 MOL     -0.559690
     61 C21         4.9760    2.5150   -3.3690 c3        1 MOL     -0.233311
     62 C22         3.7620    2.4010   -2.4550 c         1 MOL      0.807343
     63 O11         3.8520    1.8450   -1.3080 o         1 MOL     -0.713615
     64 O12         2.7270    2.9830   -2.7930 o         1 MOL     -0.713615
     65 H26         5.2130    0.2300   -2.0940 hn        1 MOL      0.150279
     66 H27         7.0040    2.0980   -3.5870 h1        1 MOL      0.091202
     67 H28         4.7060    1.9080   -4.2390 hc        1 MOL      0.068394
     68 H29         5.1250    3.5510   -3.6720 hc        1 MOL      0.068394
     69 N6          6.5400    2.6980   -0.3300 n         1 MOL     -0.313493
     70 C23         6.7760    3.6170    0.7620 c3        1 MOL      0.011208
     71 C24         5.5330    4.1440    1.4470 c         1 MOL      0.456148
     72 O13         5.7430    4.9870    2.3670 o         1 MOL     -0.610774
     73 H30         5.8820    1.9380   -0.1950 hn        1 MOL      0.127314
     74 H31         7.4450    4.4100    0.4340 h1        1 MOL      0.062199
     75 H32         7.3440    3.0940    1.5270 h1        1 MOL      0.062199
     76 N7          4.2740    3.8440    1.0700 n         1 MOL     -0.162104
     77 C25         3.0630    4.4800    1.6470 c3        1 MOL     -0.063502
     78 C26         1.9850    3.3760    1.9060 c         1 MOL      0.509354
     79 O14         1.9760    2.4410    1.1360 o         1 MOL     -0.626592
     80 C27         2.4480    5.5270    0.6870 c3        1 MOL     -0.021696
     81 C28         3.2840    6.8720    0.5540 c3        1 MOL     -0.191687
     82 C29         2.5220    8.0100   -0.0840 c         1 MOL      0.552397
     83 N8          2.0180    7.8120   -1.2920 n         1 MOL     -0.742730
     84 O15         2.1850    9.0030    0.5520 o         1 MOL     -0.554591
     85 H33         4.0950    3.2060    0.3070 hn        1 MOL      0.202442
     86 H34         3.1870    4.8810    2.6560 h1        1 MOL      0.075899
     87 H35         1.4770    5.7650    1.1110 hc        1 MOL      0.073487
     88 H36         2.3520    5.1530   -0.3370 hc        1 MOL      0.073487
     89 H37         4.1430    6.5900   -0.0620 hc        1 MOL      0.077872
     90 H38         3.6820    7.2280    1.5100 hc        1 MOL      0.077872
     91 H39         2.3010    6.9860   -1.8020 hn        1 MOL      0.355769
     92 H40         1.6130    8.5930   -1.7790 hn        1 MOL      0.355769
     93 N9          1.0740    3.4410    2.8470 n         1 MOL     -0.507558
     94 C30        -0.0440    2.4850    3.0300 c3        1 MOL      0.048408
     95 C31        -1.1880    2.9350    2.1520 c         1 MOL      0.467554
     96 O16        -1.7570    4.0160    2.3660 o         1 MOL     -0.588472
     97 C32        -0.4740    2.2060    4.4710 c3        1 MOL      0.194760
     98 C33        -1.3760    0.9530    4.5320 c3        1 MOL     -0.356018
     99 C34         0.8310    1.9470    5.3700 c3        1 MOL     -0.356018
    100 H41         1.0850    4.1380    3.5730 hn        1 MOL      0.309415
    101 H42         0.2760    1.5360    2.5960 h1        1 MOL      0.196894
    102 H43        -1.1030    3.0450    4.7690 hc        1 MOL     -0.016562
    103 H44        -1.3680    0.6180    5.5710 hc        1 MOL      0.084810
    104 H45        -2.3540    1.0640    4.0550 hc        1 MOL      0.084810
    105 H46        -0.7690    0.1700    4.0890 hc        1 MOL      0.084810
    106 H47         1.3090    2.9170    5.4930 hc        1 MOL      0.084810
    107 H48         0.7470    1.3610    6.2770 hc        1 MOL      0.084810
    108 H49         1.4650    1.2800    4.7830 hc        1 MOL      0.084810
    109 N10        -1.5330    2.0680    1.2210 n         1 MOL     -0.060031
    110 C35        -2.7200    2.1660    0.3550 c3        1 MOL     -0.076875
    111 C36        -4.0380    1.7810    1.1380 c         1 MOL      0.477893
    112 O17        -4.0910    1.0710    2.1000 o         1 MOL     -0.404245
    113 C37        -2.4320    1.2650   -0.7610 c3        1 MOL      0.057395
    114 C38        -3.3120    1.5860   -2.0060 c         1 MOL      0.560632
    115 N11        -3.1610    0.8000   -3.0770 n         1 MOL     -0.767931
    116 O18        -4.0990    2.4530   -2.1200 o         1 MOL     -0.526610
    117 H50        -0.8830    1.3140    1.0590 hn        1 MOL      0.042401
    118 H51        -2.8960    3.2070    0.0620 h1        1 MOL      0.055649
    119 H52        -2.8120    0.3020   -0.4080 hc        1 MOL      0.016134
    120 H53        -1.4140    1.1210   -1.1000 hc        1 MOL      0.016134
    121 H54        -2.4210    0.1080   -3.1190 hn        1 MOL      0.378333
    122 H55        -3.6340    1.0690   -3.9300 hn        1 MOL      0.378333
    123 N12        -5.1290    2.3480    0.5780 n         1 MOL     -0.540783
    124 C39        -6.4280    1.8810    1.0990 c3        1 MOL      0.237433
    125 C40        -6.7130    0.3950    0.8030 c         1 MOL      0.312116
    126 O19        -7.2820   -0.2760    1.6640 o         1 MOL     -0.499989
    127 C41        -7.5710    2.7810    0.7750 c3        1 MOL     -0.088712
    128 C42        -8.3210    2.6420   -0.5200 ca        1 MOL      0.012009
    129 C43        -9.3490    1.6760   -0.5830 ca        1 MOL     -0.187561
    130 C44        -7.8600    3.2480   -1.6630 ca        1 MOL     -0.187561
    131 C45        -9.8800    1.3110   -1.8010 ca        1 MOL     -0.191365
    132 C46        -8.3360    2.8960   -2.9130 ca        1 MOL     -0.191365
    133 C47        -9.3760    1.9780   -2.9640 ca        1 MOL      0.187540
    134 O20        -9.7760    1.5480   -4.1940 oh        1 MOL     -0.432571
    135 H56        -5.1100    2.8290   -0.3100 hn        1 MOL      0.302733
    136 H57        -6.3790    1.9970    2.1790 h1        1 MOL      0.054304
    137 H58        -7.2590    3.8180    0.8790 hc        1 MOL      0.027762
    138 H59        -8.2880    2.6170    1.5770 hc        1 MOL      0.027762
    139 H60        -9.8210    1.2360    0.2850 ha        1 MOL      0.137913
    140 H61        -7.0660    3.9600   -1.5210 ha        1 MOL      0.137913
    141 H62       -10.7290    0.6520   -1.8420 ha        1 MOL      0.148911
    142 H63        -7.9320    3.3220   -3.8250 ha        1 MOL      0.148911
    143 H64       -10.6330    1.1060   -4.1700 ho        1 MOL      0.349978
    144 N13        -6.2250   -0.1360   -0.3670 n         1 MOL     -0.061969
    145 C48        -6.0820   -1.5100   -0.6680 c3        1 MOL     -0.306528
    146 C49        -5.0780   -2.3590    0.1830 c         1 MOL      0.571094
    147 O21        -5.0080   -3.5700    0.1220 o         1 MOL     -0.555112
    148 C50        -5.8080   -1.6440   -2.1720 c3        1 MOL     -0.079228
    149 C51        -6.7700   -0.7670   -3.0280 c3        1 MOL     -0.023947
    150 C52        -6.6930   -1.2220   -4.4910 c         1 MOL      0.656574
    151 O22        -5.6280   -0.9610   -5.0980 o         1 MOL     -0.732861
    152 O23        -7.7380   -1.7940   -4.9900 o         1 MOL     -0.732861
    153 H65        -5.9920    0.5250   -1.0990 hn        1 MOL      0.237615
    154 H66        -7.0510   -1.9900   -0.5070 h1        1 MOL      0.122018
    155 H67        -5.8520   -2.6700   -2.5330 hc        1 MOL      0.070440
    156 H68        -4.7690   -1.3870   -2.3330 hc        1 MOL      0.070440
    157 H69        -6.4140    0.2650   -2.9810 hc        1 MOL      0.007294
    158 H70        -7.7790   -0.9670   -2.6860 hc        1 MOL      0.007294
    159 N14        -4.4310   -1.7060    1.1370 n         1 MOL     -0.300595
    160 C53        -3.6810   -2.4330    2.2270 c3        1 MOL     -0.107806
    161 C54        -4.3030   -2.3110    3.6510 c         1 MOL      0.475317
    162 O24        -3.7540   -2.8760    4.5690 o         1 MOL     -0.547318
    163 C55        -2.1810   -2.0850    2.2660 c3        1 MOL     -0.050295
    164 C56        -1.3650   -2.4720    1.0270 c3        1 MOL      0.034484
    165 C57        -0.0960   -1.5920    0.8040 c         1 MOL      0.864439
    166 O25        -0.0310   -0.3760    1.0190 o         1 MOL     -0.829925
    167 O26         0.9180   -2.0930    0.3000 o         1 MOL     -0.829925
    168 H71        -4.5790   -0.7230    1.3220 hn        1 MOL      0.099778
    169 H72        -3.7450   -3.5010    2.0200 h1        1 MOL      0.109735
    170 H73        -1.8200   -2.6550    3.1230 hc        1 MOL      0.058939
    171 H74        -2.1620   -1.0000    2.3690 hc        1 MOL      0.058939
    172 H75        -1.9830   -2.3800    0.1240 hc        1 MOL      0.026851
    173 H76        -1.1220   -3.5150    1.2280 hc        1 MOL      0.026851
    174 N15        -5.3860   -1.5920    3.7940 n         1 MOL     -0.183402
    175 C58        -5.9490   -1.3090    5.0950 c3        1 MOL     -0.130216
    176 H77        -7.0240   -1.1560    4.9990 h1        1 MOL      0.062772
    177 H78        -5.7600   -2.1490    5.7640 h1        1 MOL      0.062772
    178 H79        -5.4900   -0.4080    5.5030 h1        1 MOL      0.062772
    179 H80        -5.7350   -1.0610    3.0090 hn        1 MOL      0.184241
    180 Ca1         2.3990    0.0950    0.1050 Ca        1 MOL      1.808907
    181 O27         5.4530    0.2880    0.9220 oh        1 MOL     -0.869808
    182 H81         5.4000   -0.6760    0.8870 ho        1 MOL      0.416548
    183 H82         6.3170    0.4570    1.3000 ho        1 MOL      0.416548
    184 O28         2.8510   -0.3320    2.7010 oh        1 MOL     -0.869808
    185 H83         3.5410   -0.2380    3.3590 ho        1 MOL      0.416548
    186 H84         2.1830   -0.8620    3.1280 ho        1 MOL      0.416548
    187 O29         0.9520    1.2100   -2.0080 oh        1 MOL     -0.869808
    188 H85         1.5640    1.9160   -2.2250 ho        1 MOL      0.416548
    189 H86         1.1550    0.5120   -2.6380 ho        1 MOL      0.416548
@<TRIPOS>BOND
     1    1    2 1   
     2    1    4 1   
     3    1    5 1   
     4    1    6 1   
     5    2    3 2   
     6    2    7 1   
     7    7    8 1   
     8    7   15 1   
     9    8    9 1   
    10    8   11 1   
    11    8   16 1   
    12    9   10 2   
    13    9   19 1   
    14   11   12 1   
    15   11   17 1   
    16   11   18 1   
    17   12   13 1   
    18   12   14 1   
    19   19   20 1   
    20   19   27 1   
    21   20   21 1   
    22   20   23 1   
    23   20   28 1   
    24   21   22 2   
    25   21   38 1   
    26   23   24 1   
    27   23   25 1   
    28   23   29 1   
    29   24   26 1   
    30   24   30 1   
    31   24   31 1   
    32   25   32 1   
    33   25   33 1   
    34   25   34 1   
    35   26   35 1   
    36   26   36 1   
    37   26   37 1   
    38   38   39 1   
    39   38   46 1   
    40   39   40 1   
    41   39   42 1   
    42   39   47 1   
    43   40   41 2   
    44   40   50 1   
    45   42   43 1   
    46   42   48 1   
    47   42   49 1   
    48   43   44 1   
    49   43   45 1   
    50   50   51 1   
    51   50   54 1   
    52   51   52 1   
    53   51   55 1   
    54   51   56 1   
    55   52   53 2   
    56   52   57 1   
    57   57   58 1   
    58   57   65 1   
    59   58   59 1   
    60   58   61 1   
    61   58   66 1   
    62   59   60 2   
    63   59   69 1   
    64   61   62 1   
    65   61   67 1   
    66   61   68 1   
    67   62   63 1   
    68   62   64 1   
    69   69   70 1   
    70   69   73 1   
    71   70   71 1   
    72   70   74 1   
    73   70   75 1   
    74   71   72 2   
    75   71   76 1   
    76   76   77 1   
    77   76   85 1   
    78   77   78 1   
    79   77   80 1   
    80   77   86 1   
    81   78   79 2   
    82   78   93 1   
    83   80   81 1   
    84   80   87 1   
    85   80   88 1   
    86   81   82 1   
    87   81   89 1   
    88   81   90 1   
    89   82   83 1   
    90   82   84 2   
    91   83   91 1   
    92   83   92 1   
    93   93   94 1   
    94   93  100 1   
    95   94   95 1   
    96   94   97 1   
    97   94  101 1   
    98   95   96 2   
    99   95  109 1   
   100   97   98 1   
   101   97   99 1   
   102   97  102 1   
   103   98  103 1   
   104   98  104 1   
   105   98  105 1   
   106   99  106 1   
   107   99  107 1   
   108   99  108 1   
   109  109  110 1   
   110  109  117 1   
   111  110  111 1   
   112  110  113 1   
   113  110  118 1   
   114  111  112 2   
   115  111  123 1   
   116  113  114 1   
   117  113  119 1   
   118  113  120 1   
   119  114  115 1   
   120  114  116 2   
   121  115  121 1   
   122  115  122 1   
   123  123  124 1   
   124  123  135 1   
   125  124  125 1   
   126  124  127 1   
   127  124  136 1   
   128  125  126 2   
   129  125  144 1   
   130  127  128 1   
   131  127  137 1   
   132  127  138 1   
   133  128  129 ar  
   134  128  130 ar  
   135  129  131 ar  
   136  129  139 1   
   137  130  132 ar  
   138  130  140 1   
   139  131  133 ar  
   140  131  141 1   
   141  132  133 ar  
   142  132  142 1   
   143  133  134 1   
   144  134  143 1   
   145  144  145 1   
   146  144  153 1   
   147  145  146 1   
   148  145  148 1   
   149  145  154 1   
   150  146  147 2   
   151  146  159 1   
   152  148  149 1   
   153  148  155 1   
   154  148  156 1   
   155  149  150 1   
   156  149  157 1   
   157  149  158 1   
   158  150  151 1   
   159  150  152 1   
   160  159  160 1   
   161  159  168 1   
   162  160  161 1   
   163  160  163 1   
   164  160  169 1   
   165  161  162 2   
   166  161  174 1   
   167  163  164 1   
   168  163  170 1   
   169  163  171 1   
   170  164  165 1   
   171  164  172 1   
   172  164  173 1   
   173  165  166 1   
   174  165  167 1   
   175  174  175 1   
   176  174  179 1   
   177  175  176 1   
   178  175  177 1   
   179  175  178 1   
   180  181  182 1   
   181  181  183 1   
   182  184  185 1   
   183  184  186 1   
   184  187  188 1   
   185  187  189 1   
@<TRIPOS>SUBSTRUCTURE
     1 MOL         1 TEMP              0 ****  ****    0 ROOT
