@<TRIPOS>MOLECULE
MOL
  178   175     1     0     0
SMALL
resp


@<TRIPOS>ATOM
      1 C1          0.3960   -1.8700    6.0480 c3        1 MOL     -0.355994
      2 C2          0.6930   -1.7660    4.5410 c         1 MOL      0.834811
      3 O1         -0.0630   -2.3710    3.8160 o         1 MOL     -0.612795
      4 H1         -0.1870   -2.7700    6.2430 hc        1 MOL      0.086046
      5 H2          1.3340   -1.9170    6.6010 hc        1 MOL      0.086046
      6 H3         -0.1710   -0.9950    6.3680 hc        1 MOL      0.086046
      7 N1          1.7860   -1.1220    4.0420 n         1 MOL     -0.698221
      8 C3          2.2250   -1.2650    2.6860 c3        1 MOL      0.217315
      9 C4          2.6250   -2.7130    2.3680 c         1 MOL      0.451721
     10 O2          3.7340   -3.1000    2.7790 o         1 MOL     -0.549815
     11 C5          3.3510   -0.2870    2.3690 c3        1 MOL     -0.398784
     12 C6          3.7180   -0.0930    0.8680 c         1 MOL      0.237958
     13 O3          3.0440   -0.7120   -0.0130 o         1 MOL     -0.274906
     14 O4          4.6530    0.6840    0.5370 o         1 MOL     -0.274906
     15 H4          2.3830   -0.6470    4.7010 hn        1 MOL      0.313155
     16 H5          1.3540   -1.0400    2.0700 h1        1 MOL      0.023589
     17 H6          4.2770   -0.5160    2.9010 hc        1 MOL      0.146759
     18 H7          2.9090    0.6590    2.6990 hc        1 MOL      0.146759
     19 N2          1.9130   -3.4020    1.4660 n         1 MOL     -0.289909
     20 C7          2.0710   -4.8530    1.2030 c3        1 MOL      0.130247
     21 C8          3.2650   -4.9440    0.1590 c         1 MOL      0.268354
     22 O5          3.8490   -6.0050   -0.1430 o         1 MOL     -0.547560
     23 C9          0.7020   -5.4150    0.7000 c3        1 MOL     -0.223734
     24 H8          1.1350   -2.9030    1.0730 hn        1 MOL      0.230543
     25 H9          2.4080   -5.3510    2.1160 h1        1 MOL      0.054810
     26 H10        -0.1890   -5.0690    1.2200 hc        1 MOL      0.073377
     27 H11         0.6100   -4.7900   -0.1880 hc        1 MOL      0.073377
     28 H12         0.6180   -6.4810    0.5080 hc        1 MOL      0.073377
     29 N3          3.6340   -3.8310   -0.4500 n         1 MOL      0.143311
     30 C10         4.7880   -3.5630   -1.2990 c3        1 MOL     -0.081916
     31 C11         6.0200   -3.0790   -0.5250 c         1 MOL      0.246017
     32 O6          7.1440   -3.1250   -1.0470 o         1 MOL     -0.469481
     33 C12         4.4710   -2.5900   -2.3420 c3        1 MOL     -0.018758
     34 C13         3.1360   -2.8240   -3.0560 c         1 MOL      0.539695
     35 O7          2.3050   -1.9100   -2.9580 o         1 MOL     -0.650413
     36 O8          2.9110   -3.8890   -3.6580 o         1 MOL     -0.650413
     37 H13         2.9820   -3.0710   -0.3010 hn        1 MOL      0.084341
     38 H14         5.0910   -4.5130   -1.7500 h1        1 MOL      0.098187
     39 H15         5.2890   -2.5580   -3.0640 hc        1 MOL     -0.029195
     40 H16         4.5340   -1.5850   -1.9100 hc        1 MOL     -0.029195
     41 N4          5.9570   -2.5190    0.6900 n         1 MOL      0.064444
     42 C14         7.1510   -1.9490    1.4240 c3        1 MOL     -0.173958
     43 C15         7.8850   -0.9280    0.6000 c         1 MOL      0.332955
     44 O9          9.1280   -0.9040    0.7220 o         1 MOL     -0.542849
     45 H17         5.2020   -2.7850    1.3110 hn        1 MOL      0.036147
     46 H18         7.9030   -2.6980    1.6650 h1        1 MOL      0.095671
     47 H19         6.6380   -1.5670    2.3070 h1        1 MOL      0.095671
     48 N5          7.2680   -0.1120   -0.1670 n         1 MOL      0.013732
     49 C16         7.8990    1.1430   -0.7790 c3        1 MOL      0.001349
     50 C17         7.7140    2.4210    0.0920 c         1 MOL      0.429498
     51 O10         8.5340    3.3300    0.0840 o         1 MOL     -0.513903
     52 C18         7.3600    1.3760   -2.2080 c3        1 MOL     -0.165572
     53 C19         7.7630    0.1790   -3.1020 c         1 MOL      0.641088
     54 N6          6.9600   -0.3470   -3.9600 n         1 MOL     -0.788482
     55 O11         8.9440   -0.2500   -3.1170 o         1 MOL     -0.550557
     56 H20         6.2630   -0.0920   -0.0580 hn        1 MOL      0.079890
     57 H21         8.9600    0.9290   -0.8530 h1        1 MOL      0.084096
     58 H22         7.9090    2.2660   -2.5440 hc        1 MOL      0.035209
     59 H23         6.2710    1.3800   -2.2270 hc        1 MOL      0.035209
     60 H24         5.9740   -0.1000   -3.9820 hn        1 MOL      0.373280
     61 H25         7.2210   -1.0780   -4.6040 hn        1 MOL      0.373280
     62 N7          6.6090    2.4340    0.9310 n         1 MOL     -0.201417
     63 C20         6.2120    3.3970    1.9480 c3        1 MOL      0.018152
     64 C21         5.0000    4.2080    1.6280 c         1 MOL      0.670986
     65 O12         4.9200    5.3250    2.0540 o         1 MOL     -0.575991
     66 H26         5.9550    1.6720    0.9900 hn        1 MOL      0.004207
     67 H27         6.9980    4.1200    2.1580 h1        1 MOL      0.034566
     68 H28         6.0740    2.9160    2.9110 h1        1 MOL      0.034566
     69 N8          4.0950    3.5630    0.8540 n         1 MOL     -0.650390
     70 C22         2.7400    4.0630    0.4940 c3        1 MOL      0.052260
     71 C23         1.6300    3.0590    0.6910 c         1 MOL      0.763463
     72 O13         1.7460    1.8600    0.3690 o         1 MOL     -0.536253
     73 C24         2.7100    4.7150   -0.8570 c3        1 MOL      0.335283
     74 C25         1.4790    5.6400   -1.0130 c3        1 MOL     -0.516475
     75 O14         3.8810    5.5090   -1.0600 oh        1 MOL     -0.544030
     76 H29         4.1780    2.5650    0.6790 hn        1 MOL      0.231998
     77 H30         2.6190    4.8720    1.2290 h1        1 MOL      0.075981
     78 H31         2.6300    3.9610   -1.6440 h1        1 MOL      0.010613
     79 H32         3.8940    5.7420   -1.9910 ho        1 MOL      0.349554
     80 H33         1.4550    6.3470   -0.1830 hc        1 MOL      0.131769
     81 H34         1.5570    6.1210   -1.9970 hc        1 MOL      0.131769
     82 H35         0.5920    5.0150   -0.9520 hc        1 MOL      0.131769
     83 N9          0.5280    3.5480    1.3010 n         1 MOL     -0.747279
     84 C26        -0.7320    2.7770    1.4260 c3        1 MOL      0.175792
     85 C27        -1.6790    2.9280    0.2600 c         1 MOL      0.393980
     86 O15        -1.9170    4.0360   -0.2190 o         1 MOL     -0.594369
     87 C28        -1.5360    3.1840    2.7090 c3        1 MOL      0.044496
     88 C29        -0.6410    2.7250    3.9000 c3        1 MOL      0.158660
     89 C30        -2.9290    2.4190    2.7740 c3        1 MOL     -0.137167
     90 C31        -1.2250    3.1290    5.2980 c3        1 MOL     -0.291965
     91 H36         0.4850    4.4920    1.6600 hn        1 MOL      0.346457
     92 H37        -0.5290    1.7260    1.5900 h1        1 MOL      0.089659
     93 H38        -1.5750    4.2710    2.7400 hc        1 MOL      0.015585
     94 H39         0.3660    3.1340    3.7810 hc        1 MOL     -0.025622
     95 H40        -0.5010    1.6600    3.8100 hc        1 MOL     -0.025622
     96 H41        -3.6630    2.7660    2.0420 hc        1 MOL      0.028162
     97 H42        -2.8300    1.3370    2.7110 hc        1 MOL      0.028162
     98 H43        -3.4430    2.6280    3.7110 hc        1 MOL      0.028162
     99 H44        -0.5500    2.8200    6.1000 hc        1 MOL      0.060812
    100 H45        -1.2930    4.2080    5.3400 hc        1 MOL      0.060812
    101 H46        -2.1630    2.5950    5.4400 hc        1 MOL      0.060812
    102 N10        -2.2770    1.8420   -0.3460 n         1 MOL      0.060980
    103 C32        -3.3850    1.8930   -1.3040 c3        1 MOL     -0.010715
    104 C33        -4.7220    1.5550   -0.6590 c         1 MOL      0.522652
    105 O16        -4.8030    1.0080    0.4830 o         1 MOL     -0.489078
    106 C34        -3.1460    0.7630   -2.3520 c3        1 MOL     -0.168409
    107 C35        -1.8730    0.8790   -3.1920 c         1 MOL      0.729823
    108 O17        -0.9710   -0.0280   -3.1460 o         1 MOL     -0.706919
    109 O18        -1.8520    1.8520   -3.9920 o         1 MOL     -0.706919
    110 H47        -2.0240    0.9620    0.0780 hn        1 MOL      0.000499
    111 H48        -3.5270    2.8300   -1.8280 h1        1 MOL      0.055620
    112 H49        -3.9520    0.7210   -3.0860 hc        1 MOL      0.051252
    113 H50        -3.2370   -0.1900   -1.8290 hc        1 MOL      0.051252
    114 N11        -5.7990    1.7690   -1.3820 n         1 MOL     -0.689255
    115 C36        -7.1840    1.3880   -0.9710 c3        1 MOL      0.407163
    116 C37        -7.3740   -0.1530   -0.6410 c         1 MOL      0.361623
    117 O19        -7.7790   -0.4140    0.4650 o         1 MOL     -0.433632
    118 C38        -8.3360    2.0330   -1.7300 c3        1 MOL     -0.215730
    119 C39        -9.7340    1.5320   -1.3860 ca        1 MOL      0.130184
    120 C40       -10.1850    1.5860   -0.0460 ca        1 MOL     -0.211206
    121 C41       -10.5660    1.0140   -2.3830 ca        1 MOL     -0.211206
    122 C42       -11.5030    1.2830    0.2570 ca        1 MOL     -0.057658
    123 C43       -11.8270    0.6070   -1.9920 ca        1 MOL     -0.057658
    124 C44       -12.3300    0.7410   -0.7080 ca        1 MOL     -0.148516
    125 H51        -5.6800    2.4410   -2.1260 hn        1 MOL      0.337345
    126 H52        -7.4130    1.8220   -0.0030 h1        1 MOL      0.031673
    127 H53        -8.3180    1.7600   -2.7820 hc        1 MOL      0.052233
    128 H54        -8.3240    3.1190   -1.6110 hc        1 MOL      0.052233
    129 H55        -9.6360    2.0270    0.7730 ha        1 MOL      0.139164
    130 H56       -10.1580    0.8860   -3.3780 ha        1 MOL      0.139164
    131 H57       -11.8560    1.3610    1.2700 ha        1 MOL      0.090142
    132 H58       -12.3900    0.2930   -2.8540 ha        1 MOL      0.090142
    133 H59       -13.3510    0.4860   -0.4420 ha        1 MOL      0.107569
    134 N12        -6.9250   -1.1240   -1.4930 n         1 MOL     -0.190769
    135 C45        -6.8660   -2.5350   -1.1280 c3        1 MOL      0.271074
    136 C46        -6.1580   -2.8200    0.2250 c         1 MOL      0.126814
    137 O20        -6.5270   -3.6710    1.0590 o         1 MOL     -0.471360
    138 C47        -6.2650   -3.3230   -2.2600 c3        1 MOL     -0.178661
    139 C48        -6.6920   -2.3920   -3.4410 c3        1 MOL     -0.029509
    140 C49        -6.5730   -0.9680   -2.9410 c3        1 MOL     -0.070447
    141 H60        -7.8970   -2.7960   -0.8690 h1        1 MOL      0.005281
    142 H61        -5.1760   -3.3550   -2.1950 hc        1 MOL      0.084484
    143 H62        -6.7570   -4.2930   -2.2980 hc        1 MOL      0.084484
    144 H63        -6.0560   -2.4950   -4.3160 hc        1 MOL      0.027812
    145 H64        -7.7600   -2.5480   -3.6290 hc        1 MOL      0.027812
    146 H65        -5.5440   -0.6340   -3.0060 h1        1 MOL      0.054679
    147 H66        -7.2100   -0.3440   -3.5810 h1        1 MOL      0.054679
    148 N13        -5.1070   -2.0780    0.4870 n         1 MOL      0.010114
    149 C50        -4.2760   -2.2250    1.7170 c3        1 MOL     -0.352145
    150 C51        -5.0470   -1.6680    2.8950 c         1 MOL      0.516049
    151 O21        -4.9960   -2.2230    4.0020 o         1 MOL     -0.565963
    152 C52        -2.8490   -1.6070    1.5610 c3        1 MOL      0.014487
    153 C53        -2.1020   -2.2620    0.3820 c3        1 MOL     -0.109742
    154 C54        -0.8180   -1.5160   -0.0480 c         1 MOL      0.719190
    155 O22        -0.7070   -0.2800    0.1460 o         1 MOL     -0.770135
    156 O23        -0.0260   -2.0280   -0.8440 o         1 MOL     -0.770135
    157 H67        -4.7800   -1.4110   -0.2020 hn        1 MOL      0.184921
    158 H68        -4.1890   -3.2930    1.9120 h1        1 MOL      0.182519
    159 H69        -2.3040   -1.7270    2.5040 hc        1 MOL      0.076009
    160 H70        -2.9520   -0.5340    1.4560 hc        1 MOL      0.076009
    161 H71        -2.6890   -2.3720   -0.5390 hc        1 MOL      0.043366
    162 H72        -1.8280   -3.2710    0.6860 hc        1 MOL      0.043366
    163 N14        -5.9710   -0.6910    2.7300 n         1 MOL     -0.055706
    164 C55        -6.8560   -0.1250    3.8080 c3        1 MOL     -0.263553
    165 H73        -7.3240   -0.9410    4.3590 h1        1 MOL      0.097772
    166 H74        -6.2570    0.4770    4.4920 h1        1 MOL      0.097772
    167 H75        -7.6280    0.4980    3.3560 h1        1 MOL      0.097772
    168 H76        -6.0350   -0.2590    1.8130 hn        1 MOL      0.076991
    169 Ca1         1.1700    0.0380   -1.6180 Ca        1 MOL      1.629018
    170 O24         3.4810    1.0460   -1.9960 oh        1 MOL     -0.805438
    171 H77         4.1380    0.8000   -1.3450 ho        1 MOL      0.378368
    172 H78         3.9890    1.3710   -2.7400 ho        1 MOL      0.378368
    173 O25         1.7440    0.1790   -4.5740 oh        1 MOL     -0.805438
    174 H79         0.9280    0.2130   -5.0680 ho        1 MOL      0.378368
    175 H80         1.8470   -0.7410   -4.3490 ho        1 MOL      0.378368
    176 O26         0.3950    2.5700   -2.2720 oh        1 MOL     -0.805438
    177 H81        -0.4200    3.0530   -2.3930 ho        1 MOL      0.378368
    178 H82         0.9320    2.8070   -3.0250 ho        1 MOL      0.378368
@<TRIPOS>BOND
     1    1    2 1   
     2    1    4 1   
     3    1    5 1   
     4    1    6 1   
     5    2    3 2   
     6    2    7 1   
     7    7    8 1   
     8    7   15 1   
     9    8    9 1   
    10    8   11 1   
    11    8   16 1   
    12    9   10 2   
    13    9   19 1   
    14   11   12 1   
    15   11   17 1   
    16   11   18 1   
    17   12   13 1   
    18   12   14 1   
    19   19   20 1   
    20   19   24 1   
    21   20   21 1   
    22   20   23 1   
    23   20   25 1   
    24   21   22 2   
    25   21   29 1   
    26   23   26 1   
    27   23   27 1   
    28   23   28 1   
    29   29   30 1   
    30   29   37 1   
    31   30   31 1   
    32   30   33 1   
    33   30   38 1   
    34   31   32 2   
    35   31   41 1   
    36   33   34 1   
    37   33   39 1   
    38   33   40 1   
    39   34   35 1   
    40   34   36 1   
    41   41   42 1   
    42   41   45 1   
    43   42   43 1   
    44   42   46 1   
    45   42   47 1   
    46   43   44 2   
    47   43   48 1   
    48   48   49 1   
    49   48   56 1   
    50   49   50 1   
    51   49   52 1   
    52   49   57 1   
    53   50   51 2   
    54   50   62 1   
    55   52   53 1   
    56   52   58 1   
    57   52   59 1   
    58   53   54 1   
    59   53   55 2   
    60   54   60 1   
    61   54   61 1   
    62   62   63 1   
    63   62   66 1   
    64   63   64 1   
    65   63   67 1   
    66   63   68 1   
    67   64   65 2   
    68   64   69 1   
    69   69   70 1   
    70   69   76 1   
    71   70   71 1   
    72   70   73 1   
    73   70   77 1   
    74   71   72 2   
    75   71   83 1   
    76   73   74 1   
    77   73   75 1   
    78   73   78 1   
    79   74   80 1   
    80   74   81 1   
    81   74   82 1   
    82   75   79 1   
    83   83   84 1   
    84   83   91 1   
    85   84   85 1   
    86   84   87 1   
    87   84   92 1   
    88   85   86 2   
    89   85  102 1   
    90   87   88 1   
    91   87   89 1   
    92   87   93 1   
    93   88   90 1   
    94   88   94 1   
    95   88   95 1   
    96   89   96 1   
    97   89   97 1   
    98   89   98 1   
    99   90   99 1   
   100   90  100 1   
   101   90  101 1   
   102  102  103 1   
   103  102  110 1   
   104  103  104 1   
   105  103  106 1   
   106  103  111 1   
   107  104  105 2   
   108  104  114 1   
   109  106  107 1   
   110  106  112 1   
   111  106  113 1   
   112  107  108 1   
   113  107  109 1   
   114  114  115 1   
   115  114  125 1   
   116  115  116 1   
   117  115  118 1   
   118  115  126 1   
   119  116  117 2   
   120  116  134 1   
   121  118  119 1   
   122  118  127 1   
   123  118  128 1   
   124  119  120 ar  
   125  119  121 ar  
   126  120  122 ar  
   127  120  129 1   
   128  121  123 ar  
   129  121  130 1   
   130  122  124 ar  
   131  122  131 1   
   132  123  124 ar  
   133  123  132 1   
   134  124  133 1   
   135  134  135 1   
   136  134  140 1   
   137  135  136 1   
   138  135  138 1   
   139  135  141 1   
   140  136  137 2   
   141  136  148 1   
   142  138  139 1   
   143  138  142 1   
   144  138  143 1   
   145  139  140 1   
   146  139  144 1   
   147  139  145 1   
   148  140  146 1   
   149  140  147 1   
   150  148  149 1   
   151  148  157 1   
   152  149  150 1   
   153  149  152 1   
   154  149  158 1   
   155  150  151 2   
   156  150  163 1   
   157  152  153 1   
   158  152  159 1   
   159  152  160 1   
   160  153  154 1   
   161  153  161 1   
   162  153  162 1   
   163  154  155 1   
   164  154  156 1   
   165  163  164 1   
   166  163  168 1   
   167  164  165 1   
   168  164  166 1   
   169  164  167 1   
   170  170  171 1   
   171  170  172 1   
   172  173  174 1   
   173  173  175 1   
   174  176  177 1   
   175  176  178 1   
@<TRIPOS>SUBSTRUCTURE
     1 MOL         1 TEMP              0 ****  ****    0 ROOT
