@<TRIPOS>MOLECULE
MOL
  186   183     1     0     0
SMALL
resp


@<TRIPOS>ATOM
      1 C1          0.9270   -1.3320    6.4460 c3        1 MOL     -0.340842
      2 C2          1.2720   -1.6260    4.9610 c         1 MOL      0.817633
      3 O1          0.4490   -2.2250    4.2900 o         1 MOL     -0.627427
      4 H1          1.6760   -1.7920    7.0910 hc        1 MOL      0.078990
      5 H2          0.9180   -0.2550    6.6120 hc        1 MOL      0.078990
      6 H3         -0.0550   -1.7450    6.6800 hc        1 MOL      0.078990
      7 N1          2.4570   -1.2240    4.4550 n         1 MOL     -0.718575
      8 C3          2.9060   -1.3580    3.0980 c3        1 MOL      0.364486
      9 C4          3.1970   -2.8410    2.7640 c         1 MOL      0.344412
     10 O2          4.1000   -3.4080    3.4180 o         1 MOL     -0.567290
     11 C5          4.2040   -0.5050    2.9050 c3        1 MOL     -0.055805
     12 C6          4.7740   -0.6120    1.4760 c         1 MOL      0.776793
     13 O3          5.9980   -0.4210    1.3120 o         1 MOL     -0.688385
     14 O4          3.9510   -0.9040    0.5250 o         1 MOL     -0.688385
     15 H4          3.0570   -0.6010    4.9700 hn        1 MOL      0.313457
     16 H5          2.1480   -0.9420    2.4340 h1        1 MOL     -0.002702
     17 H6          4.9980   -0.6550    3.6240 hc        1 MOL     -0.019391
     18 H7          3.9070    0.5330    3.0910 hc        1 MOL     -0.019391
     19 N2          2.5110   -3.3990    1.7910 n         1 MOL     -0.153419
     20 C7          2.5410   -4.8410    1.4290 c3        1 MOL     -0.030689
     21 C8          3.4910   -5.1950    0.2720 c         1 MOL      0.430937
     22 O5          4.3470   -6.1480    0.2660 o         1 MOL     -0.594687
     23 C9          1.1290   -5.4050    1.2130 c3        1 MOL      0.249756
     24 C10         0.2440   -5.0680    2.4230 c3        1 MOL      0.298745
     25 C11         1.1710   -6.8750    0.8490 c3        1 MOL     -0.500861
     26 C12        -1.1670   -5.5680    2.2740 c3        1 MOL     -0.180520
     27 H8          1.8850   -2.7790    1.3070 hn        1 MOL      0.180858
     28 H9          2.9370   -5.4210    2.2690 h1        1 MOL      0.039985
     29 H10         0.6650   -4.8600    0.3880 hc        1 MOL     -0.031726
     30 H11         0.1870   -4.0030    2.6210 hc        1 MOL     -0.069985
     31 H12         0.6760   -5.5310    3.3170 hc        1 MOL     -0.069985
     32 H13         0.1480   -7.1730    0.6000 hc        1 MOL      0.110762
     33 H14         1.7080   -7.0210   -0.0890 hc        1 MOL      0.110762
     34 H15         1.6200   -7.4450    1.6600 hc        1 MOL      0.110762
     35 H16        -1.1460   -6.6510    2.2830 hc        1 MOL      0.014798
     36 H17        -1.7400   -5.1910    3.1320 hc        1 MOL      0.014798
     37 H18        -1.6610   -5.1980    1.3710 hc        1 MOL      0.014798
     38 N3          3.3520   -4.4240   -0.7840 n         1 MOL     -0.230064
     39 C13         4.1230   -4.6770   -2.0250 c3        1 MOL      0.023791
     40 C14         5.4020   -3.8650   -2.1900 c         1 MOL      0.503998
     41 O6          6.2050   -4.0540   -3.1160 o         1 MOL     -0.560858
     42 C15         3.2470   -4.3810   -3.2610 c3        1 MOL     -0.287502
     43 C16         2.6240   -2.9740   -3.3240 c         1 MOL      0.766002
     44 O7          2.6880   -2.1830   -2.3620 o         1 MOL     -0.711001
     45 O8          2.1530   -2.5880   -4.4440 o         1 MOL     -0.711001
     46 H19         2.7430   -3.6160   -0.7750 hn        1 MOL      0.193491
     47 H20         4.5180   -5.6870   -2.1760 h1        1 MOL      0.081037
     48 H21         2.5280   -5.2070   -3.2590 hc        1 MOL      0.068059
     49 H22         3.9180   -4.4630   -4.1210 hc        1 MOL      0.068059
     50 N4          5.7560   -3.1290   -1.1550 n         1 MOL     -0.087994
     51 C17         7.1020   -2.5690   -0.9140 c3        1 MOL     -0.479513
     52 C18         7.3600   -1.3500   -1.8410 c         1 MOL      0.771220
     53 O9          8.0330   -1.4450   -2.8380 o         1 MOL     -0.587018
     54 H23         5.0370   -2.8730   -0.4990 hn        1 MOL      0.192422
     55 H24         7.7750   -3.4010   -1.1500 h1        1 MOL      0.159254
     56 H25         7.2150   -2.1960    0.1040 h1        1 MOL      0.159254
     57 N5          6.8920   -0.1710   -1.4350 n         1 MOL     -0.367268
     58 C19         7.2020    1.1160   -2.0250 c3        1 MOL     -0.017802
     59 C20         7.3730    2.3120   -0.9940 c         1 MOL      0.575250
     60 O10         7.6080    3.4330   -1.3870 o         1 MOL     -0.560894
     61 C21         6.1040    1.4670   -3.0470 c3        1 MOL     -0.136085
     62 C22         4.7140    1.3360   -2.4710 c         1 MOL      0.724288
     63 O11         3.7820    0.8870   -3.1760 o         1 MOL     -0.735470
     64 O12         4.4370    1.6920   -1.2960 o         1 MOL     -0.735470
     65 H26         6.3840   -0.2660   -0.5730 hn        1 MOL     -0.010997
     66 H27         8.1530    1.0410   -2.5500 h1        1 MOL      0.052120
     67 H28         6.2210    0.7270   -3.8410 hc        1 MOL      0.044600
     68 H29         6.2520    2.4620   -3.4660 hc        1 MOL      0.044600
     69 N6          7.2430    1.9630    0.2720 n         1 MOL     -0.475786
     70 C23         7.1640    2.9200    1.3940 c3        1 MOL     -0.040650
     71 C24         5.9140    3.7710    1.5030 c         1 MOL      0.473741
     72 O13         6.0420    4.7870    2.2250 o         1 MOL     -0.592545
     73 H30         6.8000    1.0820    0.5050 hn        1 MOL      0.386450
     74 H31         8.0670    3.5200    1.4400 h1        1 MOL      0.081512
     75 H32         7.1800    2.2520    2.2610 h1        1 MOL      0.081512
     76 N7          4.7280    3.4780    0.9180 n         1 MOL     -0.342427
     77 C25         3.4420    4.2100    1.0800 c3        1 MOL      0.271185
     78 C26         2.2540    3.1690    1.2210 c         1 MOL      0.432606
     79 O14         2.2890    2.0580    0.7330 o         1 MOL     -0.603553
     80 C27         3.1400    5.1480   -0.1210 c3        1 MOL     -0.222256
     81 C28         4.0160    6.4150   -0.0300 c3        1 MOL     -0.388833
     82 C29         3.4880    7.4560   -1.0470 c         1 MOL      0.777308
     83 N8          3.6790    7.2550   -2.3030 n         1 MOL     -0.868270
     84 O15         3.0420    8.5270   -0.7400 o         1 MOL     -0.601601
     85 H33         4.7490    2.6560    0.3330 hn        1 MOL      0.254043
     86 H34         3.5460    4.7450    2.0180 h1        1 MOL      0.011995
     87 H35         2.1270    5.5410   -0.0600 hc        1 MOL      0.089965
     88 H36         3.3320    4.5620   -1.0260 hc        1 MOL      0.089965
     89 H37         5.0280    6.1420   -0.3220 hc        1 MOL      0.145294
     90 H38         3.9550    6.8130    0.9890 hc        1 MOL      0.145294
     91 H39         4.0690    6.3670   -2.5840 hn        1 MOL      0.380544
     92 H40         3.3660    7.8840   -3.0300 hn        1 MOL      0.380544
     93 N9          1.1760    3.6600    1.8200 n         1 MOL     -0.458965
     94 C30        -0.1410    2.9280    1.8200 c3        1 MOL      0.315305
     95 C31        -1.0180    3.3430    0.7130 c         1 MOL      0.286537
     96 O16        -1.0000    4.4770    0.3160 o         1 MOL     -0.579315
     97 C32        -0.8270    2.9650    3.2420 c3        1 MOL      0.169850
     98 C33        -1.8350    1.8300    3.5260 c3        1 MOL     -0.335191
     99 C34         0.2060    2.7170    4.3660 c3        1 MOL     -0.335191
    100 H41         1.0150    4.6530    1.7700 hn        1 MOL      0.253222
    101 H42         0.0430    1.8550    1.6970 h1        1 MOL      0.060350
    102 H43        -1.3320    3.9140    3.4050 hc        1 MOL     -0.027704
    103 H44        -2.4830    1.6870    2.6630 hc        1 MOL      0.072294
    104 H45        -1.3840    0.8480    3.6630 hc        1 MOL      0.072294
    105 H46        -2.3200    2.0690    4.4770 hc        1 MOL      0.072294
    106 H47        -0.1440    2.8210    5.3920 hc        1 MOL      0.072294
    107 H48         0.7000    1.7620    4.2300 hc        1 MOL      0.072294
    108 H49         0.9550    3.5130    4.2430 hc        1 MOL      0.072294
    109 N10        -1.7060    2.4660    0.0380 n         1 MOL     -0.151142
    110 C35        -2.7960    2.7890   -0.9150 c3        1 MOL      0.218662
    111 C36        -4.1380    2.2760   -0.2790 c         1 MOL      0.373484
    112 O17        -4.1460    1.7140    0.7950 o         1 MOL     -0.335517
    113 C37        -2.4300    2.1720   -2.2930 c3        1 MOL     -0.488424
    114 C38        -2.8300    0.7570   -2.6490 c         1 MOL      0.705271
    115 N11        -1.9520   -0.2000   -2.8460 n         1 MOL     -0.823962
    116 O18        -4.0080    0.4250   -2.4450 o         1 MOL     -0.557611
    117 H50        -1.5560    1.5090    0.3160 hn        1 MOL      0.126025
    118 H51        -2.9150    3.8610   -1.0680 h1        1 MOL      0.057884
    119 H52        -1.3460    2.2920   -2.3850 hc        1 MOL      0.135570
    120 H53        -2.8070    2.7610   -3.1340 hc        1 MOL      0.135570
    121 H54        -0.9800    0.0490   -2.9600 hn        1 MOL      0.393823
    122 H55        -2.2550   -1.1360   -3.0940 hn        1 MOL      0.393823
    123 N12        -5.2920    2.5630   -0.8210 n         1 MOL     -0.540921
    124 C39        -6.5780    2.1620   -0.1320 c3        1 MOL      0.125770
    125 C40        -6.7060    0.6760    0.1430 c         1 MOL      0.461292
    126 O19        -7.1380    0.2450    1.2000 o         1 MOL     -0.556647
    127 C41        -7.7140    2.5660   -1.1620 c3        1 MOL     -0.125844
    128 C42        -9.1180    2.1010   -0.9000 ca        1 MOL     -0.051376
    129 C43        -9.9330    2.5660    0.1520 ca        1 MOL     -0.092439
    130 C44        -9.6310    1.0830   -1.7280 ca        1 MOL     -0.092439
    131 C45       -11.1980    2.0300    0.4860 ca        1 MOL     -0.333444
    132 C46       -10.9790    0.5800   -1.5490 ca        1 MOL     -0.333444
    133 C47       -11.6890    1.0640   -0.4180 ca        1 MOL      0.444403
    134 O20       -13.0270    0.7320   -0.3210 oh        1 MOL     -0.582627
    135 H56        -5.3110    2.8190   -1.7960 hn        1 MOL      0.288098
    136 H57        -6.8190    2.7760    0.7340 h1        1 MOL      0.063485
    137 H58        -7.4060    2.2120   -2.1440 hc        1 MOL      0.068563
    138 H59        -7.7340    3.6520   -1.2790 hc        1 MOL      0.068563
    139 H60        -9.5420    3.3440    0.7930 ha        1 MOL      0.116579
    140 H61        -9.0620    0.7070   -2.5690 ha        1 MOL      0.116579
    141 H62       -11.6970    2.2450    1.4230 ha        1 MOL      0.172482
    142 H63       -11.3990   -0.1220   -2.2510 ha        1 MOL      0.172482
    143 H64       -13.3980    0.1270   -0.9640 ho        1 MOL      0.387379
    144 N13        -6.2260   -0.1660   -0.7580 n         1 MOL     -0.015482
    145 C48        -6.4950   -1.6270   -0.6460 c3        1 MOL     -0.130091
    146 C49        -5.7020   -2.2530    0.5150 c         1 MOL      0.363162
    147 O21        -6.1480   -3.2470    1.1080 o         1 MOL     -0.527992
    148 C50        -6.1870   -2.4180   -1.9240 c3        1 MOL      0.049307
    149 C51        -7.0830   -2.1290   -3.1290 c3        1 MOL     -0.150611
    150 C52        -6.3780   -2.5370   -4.4290 c         1 MOL      0.657105
    151 O22        -5.2040   -2.0130   -4.6360 o         1 MOL     -0.720300
    152 O23        -7.0060   -3.2260   -5.2750 o         1 MOL     -0.720300
    153 H65        -5.7800    0.2500   -1.5580 hn        1 MOL      0.144843
    154 H66        -7.5730   -1.6100   -0.4840 h1        1 MOL      0.081014
    155 H67        -6.2640   -3.4850   -1.7210 hc        1 MOL      0.022153
    156 H68        -5.1190   -2.2500   -2.0790 hc        1 MOL      0.022153
    157 H69        -7.2880   -1.0730   -3.2850 hc        1 MOL      0.006004
    158 H70        -7.9860   -2.7310   -2.9830 hc        1 MOL      0.006004
    159 N14        -4.5120   -1.7580    0.8410 n         1 MOL     -0.250715
    160 C53        -3.6080   -1.8640    2.0160 c3        1 MOL      0.006163
    161 C54        -4.0910   -1.1620    3.2970 c         1 MOL      0.426188
    162 O24        -3.9060   -1.7850    4.3600 o         1 MOL     -0.569628
    163 C55        -2.2330   -1.2890    1.6110 c3        1 MOL      0.093468
    164 C56        -1.6130   -1.9710    0.3820 c3        1 MOL     -0.133577
    165 C57        -0.2810   -1.2540    0.0040 c         1 MOL      0.866302
    166 O25         0.8320   -1.8360    0.0850 o         1 MOL     -0.845193
    167 O26        -0.2510   -0.0070   -0.3450 o         1 MOL     -0.845193
    168 H71        -4.2420   -0.9150    0.3510 hn        1 MOL      0.252060
    169 H72        -3.5140   -2.9290    2.2690 h1        1 MOL      0.091745
    170 H73        -1.5390   -1.3290    2.4520 hc        1 MOL      0.028045
    171 H74        -2.3680   -0.2250    1.3890 hc        1 MOL      0.028045
    172 H75        -2.2490   -1.9350   -0.5030 hc        1 MOL      0.019638
    173 H76        -1.3980   -3.0260    0.5350 hc        1 MOL      0.019638
    174 N15        -4.7760   -0.0160    3.1950 n         1 MOL      0.085447
    175 C58        -5.4370    0.6070    4.3110 c3        1 MOL     -0.353873
    176 H77        -4.9860    0.2600    5.2400 h1        1 MOL      0.105689
    177 H78        -5.3300    1.6900    4.2390 h1        1 MOL      0.105689
    178 H79        -6.4940    0.3440    4.3000 h1        1 MOL      0.105689
    179 H80        -4.9690    0.3860    2.2960 hn        1 MOL      0.009806
    180 Ca1         2.2080    0.1490   -1.1540 Ca        1 MOL      1.777410
    181 O27         1.5440    2.7050   -2.0980 oh        1 MOL     -0.751422
    182 H81         1.1790    2.9960   -2.9320 ho        1 MOL      0.376307
    183 H82         1.7960    3.5140   -1.6450 ho        1 MOL      0.376307
    184 O28         1.0000   -0.1560   -3.5140 oh        1 MOL     -0.751422
    185 H83         0.9770    0.1040   -4.4420 ho        1 MOL      0.376307
    186 H84         1.2670   -1.0810   -3.5370 ho        1 MOL      0.376307
@<TRIPOS>BOND
     1    1    2 1   
     2    1    4 1   
     3    1    5 1   
     4    1    6 1   
     5    2    3 2   
     6    2    7 1   
     7    7    8 1   
     8    7   15 1   
     9    8    9 1   
    10    8   11 1   
    11    8   16 1   
    12    9   10 2   
    13    9   19 1   
    14   11   12 1   
    15   11   17 1   
    16   11   18 1   
    17   12   13 1   
    18   12   14 1   
    19   19   20 1   
    20   19   27 1   
    21   20   21 1   
    22   20   23 1   
    23   20   28 1   
    24   21   22 2   
    25   21   38 1   
    26   23   24 1   
    27   23   25 1   
    28   23   29 1   
    29   24   26 1   
    30   24   30 1   
    31   24   31 1   
    32   25   32 1   
    33   25   33 1   
    34   25   34 1   
    35   26   35 1   
    36   26   36 1   
    37   26   37 1   
    38   38   39 1   
    39   38   46 1   
    40   39   40 1   
    41   39   42 1   
    42   39   47 1   
    43   40   41 2   
    44   40   50 1   
    45   42   43 1   
    46   42   48 1   
    47   42   49 1   
    48   43   44 1   
    49   43   45 1   
    50   50   51 1   
    51   50   54 1   
    52   51   52 1   
    53   51   55 1   
    54   51   56 1   
    55   52   53 2   
    56   52   57 1   
    57   57   58 1   
    58   57   65 1   
    59   58   59 1   
    60   58   61 1   
    61   58   66 1   
    62   59   60 2   
    63   59   69 1   
    64   61   62 1   
    65   61   67 1   
    66   61   68 1   
    67   62   63 1   
    68   62   64 1   
    69   69   70 1   
    70   69   73 1   
    71   70   71 1   
    72   70   74 1   
    73   70   75 1   
    74   71   72 2   
    75   71   76 1   
    76   76   77 1   
    77   76   85 1   
    78   77   78 1   
    79   77   80 1   
    80   77   86 1   
    81   78   79 2   
    82   78   93 1   
    83   80   81 1   
    84   80   87 1   
    85   80   88 1   
    86   81   82 1   
    87   81   89 1   
    88   81   90 1   
    89   82   83 1   
    90   82   84 2   
    91   83   91 1   
    92   83   92 1   
    93   93   94 1   
    94   93  100 1   
    95   94   95 1   
    96   94   97 1   
    97   94  101 1   
    98   95   96 2   
    99   95  109 1   
   100   97   98 1   
   101   97   99 1   
   102   97  102 1   
   103   98  103 1   
   104   98  104 1   
   105   98  105 1   
   106   99  106 1   
   107   99  107 1   
   108   99  108 1   
   109  109  110 1   
   110  109  117 1   
   111  110  111 1   
   112  110  113 1   
   113  110  118 1   
   114  111  112 2   
   115  111  123 1   
   116  113  114 1   
   117  113  119 1   
   118  113  120 1   
   119  114  115 1   
   120  114  116 2   
   121  115  121 1   
   122  115  122 1   
   123  123  124 1   
   124  123  135 1   
   125  124  125 1   
   126  124  127 1   
   127  124  136 1   
   128  125  126 2   
   129  125  144 1   
   130  127  128 1   
   131  127  137 1   
   132  127  138 1   
   133  128  129 ar  
   134  128  130 ar  
   135  129  131 ar  
   136  129  139 1   
   137  130  132 ar  
   138  130  140 1   
   139  131  133 ar  
   140  131  141 1   
   141  132  133 ar  
   142  132  142 1   
   143  133  134 1   
   144  134  143 1   
   145  144  145 1   
   146  144  153 1   
   147  145  146 1   
   148  145  148 1   
   149  145  154 1   
   150  146  147 2   
   151  146  159 1   
   152  148  149 1   
   153  148  155 1   
   154  148  156 1   
   155  149  150 1   
   156  149  157 1   
   157  149  158 1   
   158  150  151 1   
   159  150  152 1   
   160  159  160 1   
   161  159  168 1   
   162  160  161 1   
   163  160  163 1   
   164  160  169 1   
   165  161  162 2   
   166  161  174 1   
   167  163  164 1   
   168  163  170 1   
   169  163  171 1   
   170  164  165 1   
   171  164  172 1   
   172  164  173 1   
   173  165  166 1   
   174  165  167 1   
   175  174  175 1   
   176  174  179 1   
   177  175  176 1   
   178  175  177 1   
   179  175  178 1   
   180  181  182 1   
   181  181  183 1   
   182  184  185 1   
   183  184  186 1   
@<TRIPOS>SUBSTRUCTURE
     1 MOL         1 TEMP              0 ****  ****    0 ROOT
