@<TRIPOS>MOLECULE
MOL
  186   183     1     0     0
SMALL
resp


@<TRIPOS>ATOM
      1 C1          1.0300   -2.7130    5.7340 c3        1 MOL     -0.519374
      2 C2          1.4690   -2.6330    4.2520 c         1 MOL      0.639586
      3 O1          1.0890   -1.7220    3.5540 o         1 MOL     -0.490142
      4 H1          1.3540   -1.8130    6.2560 hc        1 MOL      0.133915
      5 H2         -0.0550   -2.7940    5.7880 hc        1 MOL      0.133915
      6 H3          1.4850   -3.5870    6.2020 hc        1 MOL      0.133915
      7 N1          2.2730   -3.5770    3.8280 n         1 MOL     -0.512045
      8 C3          2.9820   -3.4330    2.5460 c3        1 MOL     -0.014010
      9 C4          3.2540   -4.7280    1.7940 c         1 MOL      0.645855
     10 O2          3.5930   -5.8010    2.2750 o         1 MOL     -0.596619
     11 C5          4.3580   -2.8660    2.7070 c3        1 MOL     -0.092350
     12 C6          5.0180   -2.3190    1.4150 c         1 MOL      0.646804
     13 O3          4.3180   -1.9140    0.4870 o         1 MOL     -0.638575
     14 O4          6.2730   -2.3830    1.4450 o         1 MOL     -0.638575
     15 H4          2.5330   -4.2650    4.5200 hn        1 MOL      0.308040
     16 H5          2.3980   -2.8610    1.8310 h1        1 MOL      0.118186
     17 H6          4.9820   -3.6510    3.1420 hc        1 MOL      0.003736
     18 H7          4.4000   -1.9820    3.3520 hc        1 MOL      0.003736
     19 N2          3.1070   -4.5890    0.4660 n         1 MOL     -0.310988
     20 C7          3.2790   -5.5820   -0.5760 c3        1 MOL     -0.018043
     21 C8          4.0860   -4.9450   -1.7550 c         1 MOL      0.392848
     22 O5          4.6000   -5.7310   -2.5820 o         1 MOL     -0.570412
     23 C9          1.8350   -6.1020   -0.9120 c3        1 MOL      0.124574
     24 C10         1.0360   -6.8070    0.2600 c3        1 MOL      0.030933
     25 C11         1.9020   -7.1300   -2.0060 c3        1 MOL     -0.138143
     26 C12         1.6920   -8.0460    0.8880 c3        1 MOL     -0.186214
     27 H8          2.6130   -3.7600    0.1770 hn        1 MOL      0.107568
     28 H9          3.8060   -6.4220   -0.1130 h1        1 MOL      0.108293
     29 H10         1.1690   -5.3580   -1.3420 hc        1 MOL      0.045930
     30 H11         0.0420   -6.9770   -0.1500 hc        1 MOL      0.006789
     31 H12         0.8130   -6.1360    1.0990 hc        1 MOL      0.006789
     32 H13         0.9540   -7.6560   -2.1210 hc        1 MOL      0.017838
     33 H14         2.1760   -6.7200   -2.9840 hc        1 MOL      0.017838
     34 H15         2.6940   -7.8060   -1.6990 hc        1 MOL      0.017838
     35 H16         1.7400   -8.9060    0.2230 hc        1 MOL      0.034585
     36 H17         2.6360   -7.8110    1.3770 hc        1 MOL      0.034585
     37 H18         1.0160   -8.3020    1.7060 hc        1 MOL      0.034585
     38 N3          4.3910   -3.6400   -1.9150 n         1 MOL     -0.079805
     39 C13         5.1890   -3.0980   -3.0270 c3        1 MOL     -0.045142
     40 C14         6.4540   -2.3440   -2.6350 c         1 MOL      0.434634
     41 O6          7.3120   -2.1090   -3.4720 o         1 MOL     -0.602723
     42 C15         4.3550   -2.3110   -4.0230 c3        1 MOL     -0.069814
     43 C16         3.2480   -1.4400   -3.3600 c         1 MOL      0.621984
     44 O7          3.4260   -0.8550   -2.2470 o         1 MOL     -0.678600
     45 O8          2.1780   -1.3130   -3.9460 o         1 MOL     -0.678600
     46 H19         4.0460   -3.0650   -1.1620 hn        1 MOL      0.197374
     47 H20         5.6070   -3.9820   -3.5210 h1        1 MOL      0.071989
     48 H21         3.8040   -2.9030   -4.7470 hc        1 MOL      0.025971
     49 H22         5.0100   -1.6350   -4.5780 hc        1 MOL      0.025971
     50 N4          6.5570   -1.9060   -1.4340 n         1 MOL      0.010983
     51 C17         7.7670   -1.1370   -0.9730 c3        1 MOL     -0.176942
     52 C18         7.6950    0.3380   -1.2890 c         1 MOL      0.635628
     53 O9          8.6990    1.0040   -1.1890 o         1 MOL     -0.649858
     54 H23         5.8090   -2.1650   -0.8000 hn        1 MOL     -0.062046
     55 H24         8.7340   -1.5060   -1.3190 h1        1 MOL      0.097850
     56 H25         7.8090   -1.1330    0.1130 h1        1 MOL      0.097850
     57 N5          6.5820    0.9610   -1.7400 n         1 MOL     -0.258205
     58 C19         6.4540    2.2930   -2.4110 c3        1 MOL     -0.032262
     59 C20         6.4920    3.5110   -1.3690 c         1 MOL      0.452981
     60 O10         6.4020    4.6590   -1.6680 o         1 MOL     -0.531906
     61 C21         5.1860    2.3550   -3.3200 c3        1 MOL     -0.250681
     62 C22         3.8780    2.1710   -2.4810 c         1 MOL      0.841985
     63 O11         3.9890    1.8080   -1.2770 o         1 MOL     -0.725684
     64 O12         2.8130    2.6070   -2.9570 o         1 MOL     -0.725684
     65 H26         5.7660    0.3870   -1.9090 hn        1 MOL      0.084924
     66 H27         7.3420    2.4390   -3.0190 h1        1 MOL      0.099634
     67 H28         5.2170    1.5220   -4.0160 hc        1 MOL      0.084737
     68 H29         5.1010    3.1910   -4.0160 hc        1 MOL      0.084737
     69 N6          6.6520    3.1900   -0.0880 n         1 MOL     -0.218564
     70 C23         6.6640    4.0950    1.0660 c3        1 MOL     -0.137843
     71 C24         5.2900    4.6970    1.3740 c         1 MOL      0.480223
     72 O13         5.2900    5.7410    2.0310 o         1 MOL     -0.580526
     73 H30         6.4800    2.2320    0.1470 hn        1 MOL      0.171227
     74 H31         7.3920    4.8700    0.8540 h1        1 MOL      0.099568
     75 H32         6.9870    3.6400    2.0010 h1        1 MOL      0.099568
     76 N7          4.1470    4.1330    1.0320 n         1 MOL     -0.177940
     77 C25         2.7970    4.6050    1.3580 c3        1 MOL     -0.107556
     78 C26         1.7710    3.4380    1.4770 c         1 MOL      0.553432
     79 O14         1.7940    2.5010    0.7160 o         1 MOL     -0.504009
     80 C27         2.2010    5.6000    0.3320 c3        1 MOL     -0.170427
     81 C28         3.0050    6.9320    0.2030 c3        1 MOL     -0.228713
     82 C29         2.3430    8.0570   -0.4870 c         1 MOL      0.695165
     83 N8          2.0750    7.8930   -1.7350 n         1 MOL     -0.817329
     84 O15         2.1130    9.1680   -0.0560 o         1 MOL     -0.612934
     85 H33         4.1670    3.2380    0.5710 hn        1 MOL      0.179626
     86 H34         2.9420    5.0740    2.3370 h1        1 MOL      0.072199
     87 H35         1.1610    5.7610    0.6130 hc        1 MOL      0.100803
     88 H36         2.1740    5.0950   -0.6390 hc        1 MOL      0.100803
     89 H37         3.9750    6.6630   -0.1970 hc        1 MOL      0.106438
     90 H38         3.2530    7.3840    1.1630 hc        1 MOL      0.106438
     91 H39         2.2930    7.0160   -2.1810 hn        1 MOL      0.368518
     92 H40         1.7760    8.7340   -2.2140 hn        1 MOL      0.368518
     93 N9          0.9040    3.4860    2.5050 n         1 MOL     -0.471489
     94 C30        -0.2240    2.6110    2.6130 c3        1 MOL     -0.094293
     95 C31        -1.3010    2.9850    1.6310 c         1 MOL      0.651471
     96 O16        -1.9200    4.0360    1.6110 o         1 MOL     -0.617661
     97 C32        -0.7760    2.5040    4.0920 c3        1 MOL      0.114076
     98 C33        -2.0390    1.6700    4.2700 c3        1 MOL     -0.082008
     99 C34         0.3310    1.9110    4.9490 c3        1 MOL     -0.082008
    100 H41         0.8950    4.3670    3.0060 hn        1 MOL      0.292481
    101 H42         0.1200    1.6100    2.3640 h1        1 MOL      0.170681
    102 H43        -1.0270    3.5110    4.4140 hc        1 MOL     -0.000348
    103 H44        -2.8980    2.2370    3.8930 hc        1 MOL      0.007565
    104 H45        -1.9820    0.7280    3.7280 hc        1 MOL      0.007565
    105 H46        -2.2570    1.5350    5.3240 hc        1 MOL      0.007565
    106 H47         1.1030    2.6600    5.0610 hc        1 MOL      0.007565
    107 H48        -0.0050    1.8040    5.9740 hc        1 MOL      0.007565
    108 H49         0.7460    0.9920    4.5350 hc        1 MOL      0.007565
    109 N10        -1.6540    2.0980    0.6880 n         1 MOL     -0.525366
    110 C35        -2.8070    2.2590   -0.2310 c3        1 MOL      0.186767
    111 C36        -4.1080    1.8990    0.4370 c         1 MOL      0.461932
    112 O17        -4.2040    1.0840    1.3730 o         1 MOL     -0.435778
    113 C37        -2.5240    1.3740   -1.5330 c3        1 MOL     -0.331488
    114 C38        -3.5240    1.5210   -2.7690 c         1 MOL      0.753956
    115 N11        -3.9300    2.7390   -3.0680 n         1 MOL     -0.827168
    116 O18        -4.1010    0.6030   -3.2740 o         1 MOL     -0.549321
    117 H50        -1.1270    1.2480    0.8230 hn        1 MOL      0.390933
    118 H51        -2.9830    3.3060   -0.4850 h1        1 MOL      0.048639
    119 H52        -2.4270    0.3090   -1.3040 hc        1 MOL      0.101966
    120 H53        -1.5210    1.6450   -1.8690 hc        1 MOL      0.101966
    121 H54        -3.6870    3.5710   -2.5590 hn        1 MOL      0.358437
    122 H55        -4.7150    2.7380   -3.6960 hn        1 MOL      0.358437
    123 N12        -5.2260    2.3840   -0.1620 n         1 MOL     -0.501006
    124 C39        -6.6140    2.0080    0.0770 c3        1 MOL      0.210777
    125 C40        -6.7900    0.4880    0.2590 c         1 MOL      0.481339
    126 O19        -7.5810   -0.0240    1.0810 o         1 MOL     -0.542794
    127 C41        -7.4840    2.4140   -1.1360 c3        1 MOL      0.040540
    128 C42        -8.9240    1.8780   -1.2680 ca        1 MOL     -0.375521
    129 C43        -9.7920    1.7790   -0.1390 ca        1 MOL      0.155768
    130 C44        -9.4480    1.4390   -2.4790 ca        1 MOL      0.155768
    131 C45       -11.1220    1.3550   -0.1630 ca        1 MOL     -0.501999
    132 C46       -10.8000    1.0620   -2.5650 ca        1 MOL     -0.501999
    133 C47       -11.6350    0.9950   -1.4570 ca        1 MOL      0.606324
    134 O20       -12.8910    0.5920   -1.6650 oh        1 MOL     -0.593041
    135 H56        -5.1410    3.0440   -0.9270 hn        1 MOL      0.213950
    136 H57        -7.1210    2.4620    0.9250 h1        1 MOL      0.004810
    137 H58        -6.9010    2.1810   -2.0240 hc        1 MOL      0.027138
    138 H59        -7.5550    3.5040   -1.0950 hc        1 MOL      0.027138
    139 H60        -9.3800    2.2020    0.7660 ha        1 MOL      0.057617
    140 H61        -8.8030    1.4820   -3.3440 ha        1 MOL      0.057617
    141 H62       -11.7670    1.2440    0.6990 ha        1 MOL      0.188330
    142 H63       -11.2220    0.7430   -3.5070 ha        1 MOL      0.188330
    143 H64       -13.2040    0.4380   -2.5610 ho        1 MOL      0.391736
    144 N13        -6.0720   -0.2920   -0.5880 n         1 MOL      0.006909
    145 C48        -6.1190   -1.7410   -0.6320 c3        1 MOL     -0.189598
    146 C49        -5.3600   -2.5400    0.5440 c         1 MOL      0.180637
    147 O21        -5.5630   -3.7330    0.8410 o         1 MOL     -0.477378
    148 C50        -5.6160   -2.2920   -1.9940 c3        1 MOL      0.124112
    149 C51        -6.3670   -1.7370   -3.2330 c3        1 MOL     -0.300723
    150 C52        -7.5900   -2.6050   -3.4390 c         1 MOL      0.661070
    151 O22        -8.7080   -2.0660   -3.5980 o         1 MOL     -0.713116
    152 O23        -7.4360   -3.8520   -3.3680 o         1 MOL     -0.713116
    153 H65        -5.5330    0.2320   -1.2650 hn        1 MOL      0.090413
    154 H66        -7.1890   -1.9210   -0.5550 h1        1 MOL      0.172452
    155 H67        -5.4180   -3.3590   -2.0500 hc        1 MOL      0.025646
    156 H68        -4.5780   -1.9730   -1.9540 hc        1 MOL      0.025646
    157 H69        -5.7990   -1.8840   -4.1450 hc        1 MOL      0.058403
    158 H70        -6.6740   -0.7000   -3.1070 hc        1 MOL      0.058403
    159 N14        -4.3440   -1.8510    0.9960 n         1 MOL      0.042921
    160 C53        -3.3980   -2.2670    2.1140 c3        1 MOL     -0.118758
    161 C54        -3.9100   -1.8350    3.5420 c         1 MOL      0.399970
    162 O24        -3.4620   -2.3380    4.5860 o         1 MOL     -0.550821
    163 C55        -2.0360   -1.6100    1.9040 c3        1 MOL      0.112001
    164 C56        -1.3860   -2.0640    0.5900 c3        1 MOL      0.000599
    165 C57        -0.0010   -1.4560    0.4660 c         1 MOL      0.651931
    166 O25         0.1740   -0.2800    0.8570 o         1 MOL     -0.747216
    167 O26         1.0440   -2.1270    0.0640 o         1 MOL     -0.747216
    168 H71        -4.1650   -0.9290    0.6400 hn        1 MOL      0.066035
    169 H72        -3.1740   -3.3320    2.1310 h1        1 MOL      0.102367
    170 H73        -1.4030   -1.8640    2.7510 hc        1 MOL      0.016713
    171 H74        -2.0890   -0.5280    1.9150 hc        1 MOL      0.016713
    172 H75        -2.0410   -1.7710   -0.2300 hc        1 MOL     -0.016179
    173 H76        -1.2770   -3.1490    0.5140 hc        1 MOL     -0.016179
    174 N15        -4.8790   -0.8860    3.6030 n         1 MOL     -0.069191
    175 C58        -5.6270   -0.5910    4.8510 c3        1 MOL     -0.155702
    176 H77        -5.1840    0.2750    5.3430 h1        1 MOL      0.069820
    177 H78        -6.6680   -0.3780    4.6090 h1        1 MOL      0.069820
    178 H79        -5.5770   -1.4530    5.5170 h1        1 MOL      0.069820
    179 H80        -5.0570   -0.3320    2.7790 hn        1 MOL      0.082533
    180 Ca1         2.6070    0.0470   -0.0190 Ca        1 MOL      1.707031
    181 O27         0.9730    1.2690   -1.6740 oh        1 MOL     -0.902791
    182 O28         2.6690    0.3280    2.7130 oh        1 MOL     -0.902791
    183 H81         1.6220    1.9150   -1.9150 ho        1 MOL      0.431657
    184 H82         2.0820   -0.3980    2.9400 ho        1 MOL      0.431657
    185 H83         0.4940    1.0790   -2.4810 ho        1 MOL      0.431657
    186 H84         3.1700    0.4780    3.5180 ho        1 MOL      0.431657
@<TRIPOS>BOND
     1    1    2 1   
     2    1    4 1   
     3    1    5 1   
     4    1    6 1   
     5    2    3 2   
     6    2    7 1   
     7    7    8 1   
     8    7   15 1   
     9    8    9 1   
    10    8   11 1   
    11    8   16 1   
    12    9   10 2   
    13    9   19 1   
    14   11   12 1   
    15   11   17 1   
    16   11   18 1   
    17   12   13 1   
    18   12   14 1   
    19   19   20 1   
    20   19   27 1   
    21   20   21 1   
    22   20   23 1   
    23   20   28 1   
    24   21   22 2   
    25   21   38 1   
    26   23   24 1   
    27   23   25 1   
    28   23   29 1   
    29   24   26 1   
    30   24   30 1   
    31   24   31 1   
    32   25   32 1   
    33   25   33 1   
    34   25   34 1   
    35   26   35 1   
    36   26   36 1   
    37   26   37 1   
    38   38   39 1   
    39   38   46 1   
    40   39   40 1   
    41   39   42 1   
    42   39   47 1   
    43   40   41 2   
    44   40   50 1   
    45   42   43 1   
    46   42   48 1   
    47   42   49 1   
    48   43   44 1   
    49   43   45 1   
    50   50   51 1   
    51   50   54 1   
    52   51   52 1   
    53   51   55 1   
    54   51   56 1   
    55   52   53 2   
    56   52   57 1   
    57   57   58 1   
    58   57   65 1   
    59   58   59 1   
    60   58   61 1   
    61   58   66 1   
    62   59   60 2   
    63   59   69 1   
    64   61   62 1   
    65   61   67 1   
    66   61   68 1   
    67   62   63 1   
    68   62   64 1   
    69   69   70 1   
    70   69   73 1   
    71   70   71 1   
    72   70   74 1   
    73   70   75 1   
    74   71   72 2   
    75   71   76 1   
    76   76   77 1   
    77   76   85 1   
    78   77   78 1   
    79   77   80 1   
    80   77   86 1   
    81   78   79 2   
    82   78   93 1   
    83   80   81 1   
    84   80   87 1   
    85   80   88 1   
    86   81   82 1   
    87   81   89 1   
    88   81   90 1   
    89   82   83 1   
    90   82   84 2   
    91   83   91 1   
    92   83   92 1   
    93   93   94 1   
    94   93  100 1   
    95   94   95 1   
    96   94   97 1   
    97   94  101 1   
    98   95   96 2   
    99   95  109 1   
   100   97   98 1   
   101   97   99 1   
   102   97  102 1   
   103   98  103 1   
   104   98  104 1   
   105   98  105 1   
   106   99  106 1   
   107   99  107 1   
   108   99  108 1   
   109  109  110 1   
   110  109  117 1   
   111  110  111 1   
   112  110  113 1   
   113  110  118 1   
   114  111  112 2   
   115  111  123 1   
   116  113  114 1   
   117  113  119 1   
   118  113  120 1   
   119  114  115 1   
   120  114  116 2   
   121  115  121 1   
   122  115  122 1   
   123  123  124 1   
   124  123  135 1   
   125  124  125 1   
   126  124  127 1   
   127  124  136 1   
   128  125  126 2   
   129  125  144 1   
   130  127  128 1   
   131  127  137 1   
   132  127  138 1   
   133  128  129 ar  
   134  128  130 ar  
   135  129  131 ar  
   136  129  139 1   
   137  130  132 ar  
   138  130  140 1   
   139  131  133 ar  
   140  131  141 1   
   141  132  133 ar  
   142  132  142 1   
   143  133  134 1   
   144  134  143 1   
   145  144  145 1   
   146  144  153 1   
   147  145  146 1   
   148  145  148 1   
   149  145  154 1   
   150  146  147 2   
   151  146  159 1   
   152  148  149 1   
   153  148  155 1   
   154  148  156 1   
   155  149  150 1   
   156  149  157 1   
   157  149  158 1   
   158  150  151 1   
   159  150  152 1   
   160  159  160 1   
   161  159  168 1   
   162  160  161 1   
   163  160  163 1   
   164  160  169 1   
   165  161  162 2   
   166  161  174 1   
   167  163  164 1   
   168  163  170 1   
   169  163  171 1   
   170  164  165 1   
   171  164  172 1   
   172  164  173 1   
   173  165  166 1   
   174  165  167 1   
   175  174  175 1   
   176  174  179 1   
   177  175  176 1   
   178  175  177 1   
   179  175  178 1   
   180  181  183 1   
   181  181  185 1   
   182  182  184 1   
   183  182  186 1   
@<TRIPOS>SUBSTRUCTURE
     1 MOL         1 TEMP              0 ****  ****    0 ROOT
