@<TRIPOS>MOLECULE
MOL
  189   185     1     0     0
SMALL
resp


@<TRIPOS>ATOM
      1 C1         -0.2420    0.2690    6.4030 c3        1 MOL     -0.291297
      2 C2         -0.6870    0.3680    4.9240 c         1 MOL      0.743363
      3 O1          0.0700    0.9650    4.1700 o         1 MOL     -0.593676
      4 H1          0.8010   -0.0450    6.4480 hc        1 MOL      0.073124
      5 H2         -0.3470    1.2440    6.8810 hc        1 MOL      0.073124
      6 H3         -0.8630   -0.4610    6.9220 hc        1 MOL      0.073124
      7 N1         -1.8620   -0.2550    4.5580 n         1 MOL     -0.705518
      8 C3         -2.5130    0.1720    3.2820 c3        1 MOL      0.315788
      9 C4         -2.8210    1.7210    3.3320 c         1 MOL      0.420734
     10 O2         -3.6790    2.0290    4.2410 o         1 MOL     -0.574911
     11 C5         -3.7750   -0.6350    2.9530 c3        1 MOL     -0.155786
     12 C6         -4.2990   -0.3500    1.5650 c         1 MOL      0.746112
     13 O3         -3.5570    0.2580    0.7490 o         1 MOL     -0.657972
     14 O4         -5.5170   -0.6530    1.3230 o         1 MOL     -0.657972
     15 H4         -2.3760   -0.9130    5.1390 hn        1 MOL      0.361201
     16 H5         -1.8740   -0.0740    2.4310 h1        1 MOL      0.000027
     17 H6         -4.5770   -0.5250    3.6800 hc        1 MOL      0.025331
     18 H7         -3.4780   -1.6810    2.9730 hc        1 MOL      0.025331
     19 N2         -2.4020    2.5710    2.4100 n         1 MOL      0.031850
     20 C7         -2.5090    4.0730    2.5050 c3        1 MOL     -0.281957
     21 C8         -3.7170    4.5940    1.7640 c         1 MOL      0.608990
     22 O5         -4.0450    5.7990    1.7640 o         1 MOL     -0.556849
     23 C9         -1.1720    4.6490    1.9870 c3        1 MOL     -0.048897
     24 C10        -0.9150    4.5290    0.5220 c3        1 MOL      0.303381
     25 C11         0.5400    4.7370    0.0270 c3        1 MOL     -0.194775
     26 C12         0.3900    4.7070   -1.4920 c3        1 MOL      0.428598
     27 N3          1.4350    5.4130   -2.1840 n4        1 MOL     -0.479996
     28 H8         -1.9110    2.1770    1.6180 hn        1 MOL     -0.079992
     29 H9         -2.5250    4.3190    3.5680 h1        1 MOL      0.157435
     30 H10        -0.3400    4.1020    2.4300 hc        1 MOL      0.044937
     31 H11        -1.0320    5.6900    2.2870 hc        1 MOL      0.044937
     32 H12        -1.5760    5.2620    0.0560 hc        1 MOL     -0.052817
     33 H13        -1.4540    3.6460    0.1790 hc        1 MOL     -0.052817
     34 H14         1.1480    3.8770    0.3250 hc        1 MOL      0.007084
     35 H15         0.9470    5.6990    0.3140 hc        1 MOL      0.007084
     36 H16        -0.5630    5.1610   -1.7750 hx        1 MOL     -0.042705
     37 H17         0.4140    3.6480   -1.7640 hx        1 MOL     -0.042705
     38 H18         2.2560    4.8330   -2.0900 hn        1 MOL      0.333660
     39 H19         1.1860    5.5460   -3.1500 hn        1 MOL      0.333660
     40 H20         1.7410    6.2580   -1.7180 hn        1 MOL      0.333660
     41 N4         -4.4070    3.7980    0.8920 n         1 MOL     -0.443654
     42 C13        -5.2680    4.3120   -0.1060 c3        1 MOL     -0.011209
     43 C14        -6.4080    3.3090   -0.3580 c         1 MOL      0.494009
     44 O6         -7.0860    3.4580   -1.4020 o         1 MOL     -0.536669
     45 C15        -4.4360    4.6400   -1.4380 c3        1 MOL     -0.150288
     46 C16        -3.3890    3.6310   -1.8760 c         1 MOL      0.939454
     47 O7         -3.3050    2.5080   -1.3680 o         1 MOL     -0.795790
     48 O8         -2.6470    3.9440   -2.8110 o         1 MOL     -0.795790
     49 H21        -4.0340    2.8640    0.7920 hn        1 MOL      0.165911
     50 H22        -5.7810    5.2330    0.1610 h1        1 MOL      0.131368
     51 H23        -3.9360    5.6020   -1.2940 hc        1 MOL      0.046901
     52 H24        -5.0560    4.9250   -2.2790 hc        1 MOL      0.046901
     53 N5         -6.5420    2.2310    0.4840 n         1 MOL     -0.323665
     54 C17        -7.6030    1.2430    0.5320 c3        1 MOL     -0.334417
     55 C18        -7.7040    0.2070   -0.6030 c         1 MOL      0.617652
     56 O9         -8.7110   -0.5230   -0.5980 o         1 MOL     -0.602683
     57 H25        -5.7100    2.0060    1.0050 hn        1 MOL      0.274383
     58 H26        -8.5430    1.7740    0.4170 h1        1 MOL      0.160447
     59 H27        -7.6050    0.6950    1.4770 h1        1 MOL      0.160447
     60 N6         -6.7080    0.0840   -1.4390 n         1 MOL     -0.359175
     61 C19        -6.6190   -0.9190   -2.5160 c3        1 MOL     -0.052235
     62 C20        -6.3670   -2.3640   -2.0070 c         1 MOL      0.487777
     63 O10        -6.0700   -3.3020   -2.7130 o         1 MOL     -0.527653
     64 C21        -5.5930   -0.5350   -3.6680 c3        1 MOL     -0.195998
     65 C22        -4.1760   -0.6060   -3.0980 c         1 MOL      0.772103
     66 O11        -3.3110    0.1300   -3.5670 o         1 MOL     -0.734473
     67 O12        -3.9010   -1.3200   -2.1310 o         1 MOL     -0.734473
     68 H28        -5.8580    0.5730   -1.1760 hn        1 MOL      0.301682
     69 H29        -7.6420   -0.9790   -2.8990 h1        1 MOL      0.116196
     70 H30        -5.7730    0.4430   -4.1280 hc        1 MOL      0.074522
     71 H31        -5.7040   -1.2340   -4.4950 hc        1 MOL      0.074522
     72 N7         -6.4560   -2.5640   -0.6480 n         1 MOL     -0.358629
     73 C23        -6.1900   -3.8530   -0.0030 c3        1 MOL     -0.021675
     74 C24        -4.7960   -4.3940   -0.1950 c         1 MOL      0.511171
     75 O13        -4.5900   -5.5520    0.1090 o         1 MOL     -0.593599
     76 H32        -6.6590   -1.7050   -0.1620 hn        1 MOL      0.332294
     77 H33        -6.8050   -4.6970   -0.2940 h1        1 MOL      0.075879
     78 H34        -6.4310   -3.6940    1.0440 h1        1 MOL      0.075879
     79 N8         -3.7930   -3.6270   -0.5810 n         1 MOL     -0.048242
     80 C25        -2.3690   -4.2530   -0.7740 c3        1 MOL     -0.133961
     81 C26        -1.1890   -3.4010   -0.2720 c         1 MOL      0.531814
     82 O14        -1.4330   -2.2220   -0.0810 o         1 MOL     -0.500535
     83 C27        -2.1530   -4.6510   -2.2760 c3        1 MOL      0.404028
     84 C28        -2.8630   -5.9640   -2.5830 c3        1 MOL     -0.342560
     85 O15        -2.6330   -3.7540   -3.2290 oh        1 MOL     -0.652731
     86 H35        -3.9260   -2.6670   -0.8750 hn        1 MOL     -0.117796
     87 H36        -2.3910   -5.1600   -0.1580 h1        1 MOL      0.105933
     88 H37        -1.0800   -4.8130   -2.4020 h1        1 MOL     -0.008679
     89 H38        -3.4150   -3.2990   -2.9000 ho        1 MOL      0.463524
     90 H39        -3.9030   -5.8720   -2.2720 hc        1 MOL      0.086867
     91 H40        -2.8700   -6.2090   -3.6370 hc        1 MOL      0.086867
     92 H41        -2.4390   -6.8190   -2.0500 hc        1 MOL      0.086867
     93 N9          0.0170   -3.9850   -0.1040 n         1 MOL     -0.630966
     94 C29         1.1720   -3.4030    0.5670 c3        1 MOL      0.073671
     95 C30         2.3460   -3.4290   -0.3410 c         1 MOL      0.541936
     96 O16         2.9710   -4.5220   -0.3800 o         1 MOL     -0.556380
     97 C31         1.3830   -4.1730    1.9200 c3        1 MOL      0.162904
     98 C32         0.1840   -3.9250    2.9090 c3        1 MOL      0.033441
     99 C33         2.7110   -3.7150    2.6180 c3        1 MOL     -0.242193
    100 C34         0.3810   -4.2990    4.4030 c3        1 MOL     -0.172122
    101 H42         0.1590   -4.9030   -0.4900 hn        1 MOL      0.323901
    102 H43         0.8570   -2.3770    0.7680 h1        1 MOL      0.062134
    103 H44         1.3560   -5.2580    1.7850 hc        1 MOL     -0.008291
    104 H45        -0.6530   -4.5350    2.5870 hc        1 MOL      0.012396
    105 H46        -0.2090   -2.9080    2.8660 hc        1 MOL      0.012396
    106 H47         3.6180   -3.8710    2.0360 hc        1 MOL      0.046431
    107 H48         2.4580   -2.6590    2.7870 hc        1 MOL      0.046431
    108 H49         2.7920   -4.2580    3.5490 hc        1 MOL      0.046431
    109 H50         1.0970   -3.6390    4.8940 hc        1 MOL      0.040922
    110 H51        -0.4930   -4.1440    5.0250 hc        1 MOL      0.040922
    111 H52         0.7820   -5.3080    4.5090 hc        1 MOL      0.040922
    112 N10         2.6320   -2.3170   -0.9650 n         1 MOL     -0.268852
    113 C35         3.8670   -2.0600   -1.6950 c3        1 MOL     -0.106388
    114 C36         5.1070   -2.0440   -0.8070 c         1 MOL      0.381792
    115 O17         5.0530   -1.9880    0.4390 o         1 MOL     -0.268920
    116 C37         3.6530   -0.6330   -2.4000 c3        1 MOL      0.035097
    117 C38         2.6000   -0.6420   -3.5170 c3        1 MOL     -0.206462
    118 O18         3.2690    0.4430   -1.5930 oh        1 MOL     -0.478374
    119 H53         1.9770   -1.5490   -0.8820 hn        1 MOL      0.217978
    120 H54         3.9700   -2.8000   -2.4930 h1        1 MOL      0.126235
    121 H55         4.5540   -0.3150   -2.9210 h1        1 MOL      0.066593
    122 H56         2.3660    0.2920   -1.3230 ho        1 MOL      0.325546
    123 H57         1.5900   -0.7660   -3.1160 hc        1 MOL      0.070309
    124 H58         2.6270    0.3140   -4.0520 hc        1 MOL      0.070309
    125 H59         2.7310   -1.3930   -4.2960 hc        1 MOL      0.070309
    126 N11         6.2790   -2.0000   -1.4540 n         1 MOL     -0.434488
    127 C39         7.5420   -1.6930   -0.7390 c3        1 MOL      0.038568
    128 C40         7.3860   -0.4100    0.0990 c         1 MOL      0.159114
    129 O19         7.9740   -0.3990    1.2250 o         1 MOL     -0.483913
    130 C41         8.7010   -1.4120   -1.7110 c3        1 MOL      0.181388
    131 C42         9.0570   -2.7070   -2.5300 c3        1 MOL     -0.304855
    132 O20         8.3830   -0.3510   -2.6090 oh        1 MOL     -0.605030
    133 H60         6.3110   -1.9800   -2.4650 hn        1 MOL      0.311953
    134 H61         7.8460   -2.4460   -0.0110 h1        1 MOL      0.144292
    135 H62         9.6100   -1.1660   -1.1710 h1        1 MOL      0.074523
    136 H63         9.2030    0.0980   -2.8230 ho        1 MOL      0.377750
    137 H64         8.2060   -3.1370   -3.0660 hc        1 MOL      0.095704
    138 H65         9.8750   -2.6580   -3.2410 hc        1 MOL      0.095704
    139 H66         9.3800   -3.4120   -1.7650 hc        1 MOL      0.095704
    140 N12         6.6560    0.5870   -0.3440 n         1 MOL      0.055185
    141 C43         6.4670    1.8490    0.4460 c3        1 MOL      0.044883
    142 C44         5.6730    1.6360    1.6840 c         1 MOL      0.362097
    143 O21         5.7940    2.3260    2.6370 o         1 MOL     -0.507950
    144 C45         5.8140    2.8960   -0.4690 c3        1 MOL     -0.172827
    145 C46         6.2350    2.9750   -1.9980 c3        1 MOL     -0.056608
    146 C47         7.7580    3.2450   -2.1530 c3        1 MOL      0.165316
    147 C48         8.1160    3.4350   -3.6420 c3        1 MOL     -0.040398
    148 N13         9.5890    3.6870   -3.8440 n4        1 MOL     -0.326408
    149 H67         6.4030    0.5540   -1.3210 hn        1 MOL      0.172659
    150 H68         7.4380    2.2590    0.7290 h1        1 MOL      0.046204
    151 H69         5.9120    3.8510    0.0570 hc        1 MOL      0.066614
    152 H70         4.7630    2.6240   -0.5080 hc        1 MOL      0.066614
    153 H71         5.6770    3.7300   -2.5490 hc        1 MOL      0.011618
    154 H72         6.1140    2.0070   -2.4940 hc        1 MOL      0.011618
    155 H73         8.3610    2.4190   -1.7890 hc        1 MOL     -0.018068
    156 H74         8.0630    4.1210   -1.5790 hc        1 MOL     -0.018068
    157 H75         7.6510    4.3710   -3.9530 hx        1 MOL      0.096476
    158 H76         7.7020    2.6230   -4.2450 hx        1 MOL      0.096476
    159 H77         9.7360    4.0140   -4.7870 hn        1 MOL      0.295747
    160 H78         9.8670    4.4240   -3.2060 hn        1 MOL      0.295747
    161 H79        10.1260    2.8770   -3.5940 hn        1 MOL      0.295747
    162 N14         4.7050    0.7560    1.6110 n         1 MOL      0.006561
    163 C49         3.7450    0.4900    2.6520 c3        1 MOL     -0.117561
    164 C50         4.3060   -0.4970    3.6570 c         1 MOL      0.481822
    165 O22         3.9570   -0.4250    4.8770 o         1 MOL     -0.551641
    166 C51         2.3650    0.0670    2.1320 c3        1 MOL      0.277847
    167 C52         1.7620    1.1500    1.3010 c3        1 MOL     -0.423311
    168 C53         0.6170    0.7000    0.4530 c         1 MOL      0.853854
    169 O23         0.7840   -0.0010   -0.5600 o         1 MOL     -0.720361
    170 O24        -0.5700    1.1100    0.6700 o         1 MOL     -0.720361
    171 H80         4.5890    0.3510    0.6830 hn        1 MOL     -0.022659
    172 H81         3.6010    1.3720    3.2780 h1        1 MOL      0.100622
    173 H82         1.7610   -0.2000    2.9950 hc        1 MOL     -0.011552
    174 H83         2.5390   -0.8130    1.5180 hc        1 MOL     -0.011552
    175 H84         2.4660    1.5560    0.5810 hc        1 MOL      0.095297
    176 H85         1.4940    1.9980    1.9340 hc        1 MOL      0.095297
    177 N15         5.1730   -1.3840    3.1850 n         1 MOL     -0.087478
    178 C54         6.1430   -2.0340    4.0580 c3        1 MOL     -0.403058
    179 H86         6.7760   -2.6970    3.4680 h1        1 MOL      0.136919
    180 H87         6.7620   -1.2780    4.5420 h1        1 MOL      0.136919
    181 H88         5.6180   -2.6140    4.8170 h1        1 MOL      0.136919
    182 H89         5.2740   -1.4990    2.1810 hn        1 MOL      0.133880
    183 Ca1        -1.9420    0.2620   -1.2320 Ca        1 MOL      1.793054
    184 O25        -0.9500   -1.4160   -2.9680 oh        1 MOL     -0.821295
    185 H90        -0.6100   -1.2740   -3.8540 ho        1 MOL      0.398318
    186 H91        -1.4650   -2.2170   -3.0370 ho        1 MOL      0.398318
    187 O26        -0.7210    1.8470   -3.0950 oh        1 MOL     -0.821295
    188 H92        -1.1320    2.6880   -2.8920 ho        1 MOL      0.398318
    189 H93        -0.5900    1.8600   -4.0440 ho        1 MOL      0.398318
@<TRIPOS>BOND
     1    1    2 1   
     2    1    4 1   
     3    1    5 1   
     4    1    6 1   
     5    2    3 2   
     6    2    7 1   
     7    7    8 1   
     8    7   15 1   
     9    8    9 1   
    10    8   11 1   
    11    8   16 1   
    12    9   10 2   
    13    9   19 1   
    14   11   12 1   
    15   11   17 1   
    16   11   18 1   
    17   12   13 1   
    18   12   14 1   
    19   19   20 1   
    20   19   28 1   
    21   20   21 1   
    22   20   23 1   
    23   20   29 1   
    24   21   22 2   
    25   21   41 1   
    26   23   24 1   
    27   23   30 1   
    28   23   31 1   
    29   24   25 1   
    30   24   32 1   
    31   24   33 1   
    32   25   26 1   
    33   25   34 1   
    34   25   35 1   
    35   26   27 1   
    36   26   36 1   
    37   26   37 1   
    38   27   38 1   
    39   27   39 1   
    40   27   40 1   
    41   41   42 1   
    42   41   49 1   
    43   42   43 1   
    44   42   45 1   
    45   42   50 1   
    46   43   44 2   
    47   43   53 1   
    48   45   46 1   
    49   45   51 1   
    50   45   52 1   
    51   46   47 1   
    52   46   48 1   
    53   53   54 1   
    54   53   57 1   
    55   54   55 1   
    56   54   58 1   
    57   54   59 1   
    58   55   56 2   
    59   55   60 1   
    60   60   61 1   
    61   60   68 1   
    62   61   62 1   
    63   61   64 1   
    64   61   69 1   
    65   62   63 2   
    66   62   72 1   
    67   64   65 1   
    68   64   70 1   
    69   64   71 1   
    70   65   66 1   
    71   65   67 1   
    72   72   73 1   
    73   72   76 1   
    74   73   74 1   
    75   73   77 1   
    76   73   78 1   
    77   74   75 2   
    78   74   79 1   
    79   79   80 1   
    80   79   86 1   
    81   80   81 1   
    82   80   83 1   
    83   80   87 1   
    84   81   82 2   
    85   81   93 1   
    86   83   84 1   
    87   83   85 1   
    88   83   88 1   
    89   84   90 1   
    90   84   91 1   
    91   84   92 1   
    92   85   89 1   
    93   93   94 1   
    94   93  101 1   
    95   94   95 1   
    96   94   97 1   
    97   94  102 1   
    98   95   96 2   
    99   95  112 1   
   100   97   98 1   
   101   97   99 1   
   102   97  103 1   
   103   98  100 1   
   104   98  104 1   
   105   98  105 1   
   106   99  106 1   
   107   99  107 1   
   108   99  108 1   
   109  100  109 1   
   110  100  110 1   
   111  100  111 1   
   112  112  113 1   
   113  112  119 1   
   114  113  114 1   
   115  113  116 1   
   116  113  120 1   
   117  114  115 2   
   118  114  126 1   
   119  116  117 1   
   120  116  118 1   
   121  116  121 1   
   122  117  123 1   
   123  117  124 1   
   124  117  125 1   
   125  118  122 1   
   126  126  127 1   
   127  126  133 1   
   128  127  128 1   
   129  127  130 1   
   130  127  134 1   
   131  128  129 2   
   132  128  140 1   
   133  130  131 1   
   134  130  132 1   
   135  130  135 1   
   136  131  137 1   
   137  131  138 1   
   138  131  139 1   
   139  132  136 1   
   140  140  141 1   
   141  140  149 1   
   142  141  142 1   
   143  141  144 1   
   144  141  150 1   
   145  142  143 2   
   146  142  162 1   
   147  144  145 1   
   148  144  151 1   
   149  144  152 1   
   150  145  146 1   
   151  145  153 1   
   152  145  154 1   
   153  146  147 1   
   154  146  155 1   
   155  146  156 1   
   156  147  148 1   
   157  147  157 1   
   158  147  158 1   
   159  148  159 1   
   160  148  160 1   
   161  148  161 1   
   162  162  163 1   
   163  162  171 1   
   164  163  164 1   
   165  163  166 1   
   166  163  172 1   
   167  164  165 2   
   168  164  177 1   
   169  166  167 1   
   170  166  173 1   
   171  166  174 1   
   172  167  168 1   
   173  167  175 1   
   174  167  176 1   
   175  168  169 1   
   176  168  170 1   
   177  177  178 1   
   178  177  182 1   
   179  178  179 1   
   180  178  180 1   
   181  178  181 1   
   182  184  185 1   
   183  184  186 1   
   184  187  188 1   
   185  187  189 1   
@<TRIPOS>SUBSTRUCTURE
     1 MOL         1 TEMP              0 ****  ****    0 ROOT
