@<TRIPOS>MOLECULE
MOL
  182   178     1     0     0
SMALL
resp


@<TRIPOS>ATOM
      1 C1         -1.7290   -3.4900    5.6670 c3        1 MOL     -0.325972
      2 C2         -1.2370   -2.9350    4.2980 c         1 MOL      0.679182
      3 O1         -2.0720   -2.6450    3.4290 o         1 MOL     -0.652117
      4 H1         -0.8810   -3.8920    6.2210 hc        1 MOL      0.086539
      5 H2         -2.1890   -2.6860    6.2410 hc        1 MOL      0.086539
      6 H3         -2.4600   -4.2810    5.4970 hc        1 MOL      0.086539
      7 N1         -0.0030   -2.6480    4.0090 n         1 MOL     -0.496914
      8 C3          0.5210   -2.3960    2.6630 c3        1 MOL      0.028031
      9 C4          0.6630   -3.7030    1.9420 c         1 MOL      0.551149
     10 O2          1.2610   -4.6230    2.4330 o         1 MOL     -0.537875
     11 C5          1.8900   -1.6750    2.8660 c3        1 MOL     -0.247379
     12 C6          2.5720   -1.2420    1.5710 c         1 MOL      0.843804
     13 O3          1.9140   -1.4110    0.5410 o         1 MOL     -0.759676
     14 O4          3.6750   -0.6610    1.6900 o         1 MOL     -0.759676
     15 H4          0.7210   -2.7240    4.7180 hn        1 MOL      0.302214
     16 H5         -0.1520   -1.7370    2.1070 h1        1 MOL      0.019940
     17 H6          2.6020   -2.3510    3.3540 hc        1 MOL      0.055990
     18 H7          1.7520   -0.7130    3.3630 hc        1 MOL      0.055990
     19 N2          0.0170   -3.7720    0.7740 n         1 MOL     -0.364134
     20 C7         -0.1360   -5.0400    0.0120 c3        1 MOL      0.145556
     21 C8          1.1470   -5.4570   -0.7010 c         1 MOL      0.393312
     22 O5          1.5930   -6.5420   -0.3750 o         1 MOL     -0.523323
     23 C9         -1.2980   -4.8980   -0.8940 c3        1 MOL     -0.230274
     24 C10        -2.7370   -4.9540   -0.2500 c3        1 MOL      0.102744
     25 C11        -3.2570   -6.3120    0.2560 c3        1 MOL     -0.117001
     26 C12        -4.7220   -6.4960    0.5760 c3        1 MOL      0.036221
     27 N3         -5.0350   -6.2600    1.9990 n4        1 MOL     -0.440283
     28 H8         -0.5190   -2.9830    0.4440 hn        1 MOL      0.316594
     29 H9         -0.3250   -5.8470    0.7240 h1        1 MOL      0.039691
     30 H10        -1.1940   -5.6530   -1.6790 hc        1 MOL      0.056227
     31 H11        -1.2670   -3.9970   -1.5070 hc        1 MOL      0.056227
     32 H12        -3.4500   -4.4810   -0.9270 hc        1 MOL      0.026533
     33 H13        -2.7100   -4.3510    0.6570 hc        1 MOL      0.026533
     34 H14        -2.6400   -6.6480    1.0900 hc        1 MOL      0.063876
     35 H15        -3.0300   -6.9880   -0.5640 hc        1 MOL      0.063876
     36 H16        -5.0570   -7.4860    0.2630 hx        1 MOL      0.085959
     37 H17        -5.2510   -5.7950   -0.0720 hx        1 MOL      0.085959
     38 H18        -6.0240   -6.3950    2.1470 hn        1 MOL      0.360579
     39 H19        -4.5930   -6.9300    2.6160 hn        1 MOL      0.360579
     40 H20        -4.8080   -5.2840    2.1310 hn        1 MOL      0.360579
     41 N4          1.6380   -4.6860   -1.6840 n         1 MOL     -0.322573
     42 C13         2.8910   -4.9510   -2.3880 c3        1 MOL      0.100987
     43 C14         4.1410   -4.6740   -1.5440 c         1 MOL      0.441091
     44 O6          5.2470   -5.0340   -1.9000 o         1 MOL     -0.512531
     45 C15         2.8960   -4.2150   -3.6860 c3        1 MOL     -0.273537
     46 C16         2.8920   -2.6660   -3.5130 c         1 MOL      0.824009
     47 O7          2.6490   -2.1920   -2.3520 o         1 MOL     -0.725020
     48 O8          3.1400   -1.9600   -4.5350 o         1 MOL     -0.725020
     49 H21         1.1570   -3.8470   -1.9600 hn        1 MOL      0.208182
     50 H22         3.0610   -6.0050   -2.6270 h1        1 MOL      0.080629
     51 H23         1.9700   -4.5250   -4.1810 hc        1 MOL      0.067134
     52 H24         3.7410   -4.4770   -4.3200 hc        1 MOL      0.067134
     53 N5          3.9000   -4.1380   -0.3040 n         1 MOL     -0.210179
     54 C17         4.9580   -3.9060    0.6950 c3        1 MOL     -0.200916
     55 C18         5.9370   -2.7370    0.3700 c         1 MOL      0.520540
     56 O9          7.0390   -2.6810    0.8670 o         1 MOL     -0.563376
     57 H25         3.0040   -3.8160    0.0280 hn        1 MOL      0.235179
     58 H26         5.6090   -4.7630    0.8520 h1        1 MOL      0.110622
     59 H27         4.5980   -3.7240    1.7070 h1        1 MOL      0.110622
     60 N6          5.4670   -1.8120   -0.4410 n         1 MOL     -0.181829
     61 C19         6.3250   -0.7410   -0.9160 c3        1 MOL     -0.084263
     62 C20         6.7150    0.3830    0.1120 c         1 MOL      0.336826
     63 O10         7.6220    1.2030   -0.1100 o         1 MOL     -0.521519
     64 C21         5.8800   -0.1890   -2.2650 c3        1 MOL     -0.118249
     65 C22         4.6790    0.6980   -2.2760 c         1 MOL      0.643900
     66 N7          4.6690    1.6930   -3.1060 n         1 MOL     -0.682763
     67 O11         3.7540    0.5340   -1.5270 o         1 MOL     -0.725980
     68 H28         4.4980   -1.7650   -0.7120 hn        1 MOL      0.178298
     69 H29         7.2770   -1.1920   -1.1600 h1        1 MOL      0.125220
     70 H30         5.6130   -1.0840   -2.8350 hc        1 MOL      0.062084
     71 H31         6.6710    0.3140   -2.8090 hc        1 MOL      0.062084
     72 H32         5.4900    1.6950   -3.6870 hn        1 MOL      0.337486
     73 H33         3.8250    2.2570   -3.1650 hn        1 MOL      0.337486
     74 N8          6.0470    0.4200    1.2040 n         1 MOL     -0.028220
     75 C23         6.1380    1.4700    2.2310 c3        1 MOL     -0.458915
     76 C24         4.9840    2.4590    2.2550 c         1 MOL      0.777655
     77 O12         5.0520    3.4740    2.9320 o         1 MOL     -0.613223
     78 H34         5.3250   -0.2500    1.4240 hn        1 MOL      0.207274
     79 H35         7.0520    2.0470    2.0850 h1        1 MOL      0.167359
     80 H36         6.0920    1.0770    3.2410 h1        1 MOL      0.167359
     81 N9          3.9840    2.2030    1.4560 n         1 MOL     -0.700841
     82 C25         2.9080    3.2300    1.1970 c3        1 MOL      0.393363
     83 C26         1.5270    2.5180    0.9760 c         1 MOL      0.297346
     84 O13         1.5120    1.5770    0.1870 o         1 MOL     -0.411201
     85 C27         3.2330    4.2620    0.1000 c3        1 MOL     -0.051527
     86 C28         4.4250    5.1740    0.2200 ca        1 MOL     -0.119406
     87 C29         5.7310    4.6560   -0.0170 ca        1 MOL      0.010201
     88 C30         4.2790    6.5380    0.5630 ca        1 MOL      0.010201
     89 C31         6.8610    5.4390    0.1660 ca        1 MOL     -0.404892
     90 C32         5.4160    7.3500    0.6320 ca        1 MOL     -0.404892
     91 C33         6.7290    6.8070    0.5280 ca        1 MOL      0.485100
     92 O14         7.7930    7.6830    0.7020 oh        1 MOL     -0.492064
     93 H37         4.0740    1.3980    0.8630 hn        1 MOL      0.525580
     94 H38         2.8270    3.7020    2.1750 h1        1 MOL     -0.013092
     95 H39         2.3600    4.8950   -0.0500 hc        1 MOL      0.018530
     96 H40         3.3760    3.7540   -0.8500 hc        1 MOL      0.018530
     97 H41         5.8270    3.5860   -0.1250 ha        1 MOL      0.078497
     98 H42         3.3670    7.1060    0.6960 ha        1 MOL      0.078497
     99 H43         7.8250    4.9930   -0.0010 ha        1 MOL      0.178276
    100 H44         5.3730    8.3670    0.9970 ha        1 MOL      0.178276
    101 H45         7.4620    8.3880    1.2600 ho        1 MOL      0.323127
    102 N10         0.4180    3.0260    1.4610 n         1 MOL     -0.486044
    103 C34        -0.9640    2.5480    1.2740 c3        1 MOL      0.086531
    104 C35        -1.7450    3.5290    0.4240 c         1 MOL      0.607815
    105 O15        -1.8610    4.7110    0.7240 o         1 MOL     -0.567910
    106 C36        -1.5320    2.3060    2.7330 c3        1 MOL     -0.021320
    107 C37        -0.8510    1.0620    3.4070 c3        1 MOL     -0.002958
    108 C38        -3.0410    2.3020    2.8050 c3        1 MOL     -0.071269
    109 C39        -1.2710    0.8390    4.8600 c3        1 MOL     -0.193171
    110 H46         0.5090    3.8910    1.9730 hn        1 MOL      0.299744
    111 H47        -1.0350    1.5880    0.7790 h1        1 MOL      0.003646
    112 H48        -1.2370    3.2050    3.2720 hc        1 MOL      0.019946
    113 H49         0.2300    1.0780    3.3440 hc        1 MOL      0.086335
    114 H50        -1.1840    0.2320    2.7950 hc        1 MOL      0.086335
    115 H51        -3.3690    3.2750    2.4280 hc        1 MOL      0.020550
    116 H52        -3.4360    1.5000    2.1770 hc        1 MOL      0.020550
    117 H53        -3.3460    2.2780    3.8500 hc        1 MOL      0.020550
    118 H54        -2.3320    0.6010    4.8890 hc        1 MOL      0.051350
    119 H55        -0.6320    0.0930    5.3320 hc        1 MOL      0.051350
    120 H56        -1.1120    1.7600    5.4220 hc        1 MOL      0.051350
    121 N11        -2.3670    3.0720   -0.6390 n         1 MOL     -0.348209
    122 C40        -3.4910    3.6180   -1.3100 c3        1 MOL     -0.014831
    123 C41        -4.7320    3.5520   -0.5000 c         1 MOL      0.493819
    124 O16        -4.9600    2.6770    0.3440 o         1 MOL     -0.342196
    125 C42        -3.6670    2.8230   -2.6120 c3        1 MOL      0.119823
    126 O17        -4.7340    3.2440   -3.3600 oh        1 MOL     -0.598213
    127 H57        -2.1640    2.1210   -0.8990 hn        1 MOL      0.163618
    128 H58        -3.2170    4.6240   -1.6310 h1        1 MOL      0.092381
    129 H59        -3.7970    1.7740   -2.3430 h1        1 MOL      0.068548
    130 H60        -2.8320    3.0600   -3.2670 h1        1 MOL      0.068548
    131 H61        -4.6280    2.8090   -4.2070 ho        1 MOL      0.409397
    132 N12        -5.7150    4.4430   -0.9400 n         1 MOL     -0.610372
    133 C43        -6.9820    4.4050   -0.3690 c3        1 MOL      0.357016
    134 C44        -7.7370    3.0700   -0.7300 c         1 MOL      0.387743
    135 O18        -8.6000    2.6220    0.0130 o         1 MOL     -0.507467
    136 C45        -7.7560    5.6920   -0.7870 c3        1 MOL     -0.246954
    137 H62        -5.5280    4.9890   -1.7680 hn        1 MOL      0.338939
    138 H63        -6.9760    4.4320    0.7200 h1        1 MOL      0.020663
    139 H64        -7.9890    5.5900   -1.8450 hc        1 MOL      0.071368
    140 H65        -8.6600    5.7050   -0.1870 hc        1 MOL      0.071368
    141 H66        -7.1850    6.6010   -0.6310 hc        1 MOL      0.071368
    142 N13        -7.4550    2.4940   -1.9200 n         1 MOL     -0.382890
    143 C46        -7.9080    1.1260   -2.3190 c3        1 MOL      0.170692
    144 C47        -7.2480    0.0390   -1.5250 c         1 MOL      0.284616
    145 O19        -7.7010   -1.1620   -1.6180 o         1 MOL     -0.531413
    146 C48        -7.7050    0.9390   -3.8110 c3        1 MOL     -0.323773
    147 H67        -6.7590    2.8450   -2.5710 hn        1 MOL      0.236067
    148 H68        -8.9710    1.0560   -2.0910 h1        1 MOL      0.100072
    149 H69        -7.8560   -0.1150   -4.0570 hc        1 MOL      0.094179
    150 H70        -8.3910    1.6060   -4.3300 hc        1 MOL      0.094179
    151 H71        -6.6930    1.2710   -4.0140 hc        1 MOL      0.094179
    152 N14        -6.1740    0.2730   -0.7970 n         1 MOL     -0.010510
    153 C49        -5.5250   -0.7790    0.0350 c3        1 MOL     -0.070870
    154 C50        -6.1660   -0.6840    1.4080 c         1 MOL      0.434680
    155 O20        -6.5820   -1.7130    1.9720 o         1 MOL     -0.582020
    156 C51        -4.0320   -0.5050    0.2070 c3        1 MOL     -0.003566
    157 C52        -3.1650   -1.1400   -0.9320 c3        1 MOL      0.029315
    158 C53        -1.7310   -0.5450   -0.9290 c         1 MOL      0.828006
    159 O21        -0.8670   -1.0000   -0.2100 o         1 MOL     -0.825532
    160 O22        -1.4160    0.2720   -1.8340 o         1 MOL     -0.825532
    161 H72        -5.7900    1.1960   -0.6730 hn        1 MOL      0.091444
    162 H73        -5.7710   -1.7710   -0.3290 h1        1 MOL      0.088669
    163 H74        -3.7130   -0.8880    1.1790 hc        1 MOL      0.037857
    164 H75        -3.8120    0.5580    0.2590 hc        1 MOL      0.037857
    165 H76        -3.6590   -0.8310   -1.8650 hc        1 MOL     -0.059300
    166 H77        -3.1620   -2.2170   -0.7790 hc        1 MOL     -0.059300
    167 N15        -6.3820    0.4920    1.9520 n         1 MOL     -0.062530
    168 C54        -7.0160    0.8300    3.2240 c3        1 MOL     -0.238131
    169 H78        -8.0320    1.1790    3.0410 h1        1 MOL      0.104949
    170 H79        -7.0450   -0.0540    3.8620 h1        1 MOL      0.104949
    171 H80        -6.4450    1.6160    3.7170 h1        1 MOL      0.104949
    172 H81        -6.1590    1.2800    1.3440 hn        1 MOL      0.065333
    173 Ca1         1.1270   -0.2770   -1.5940 Ca        1 MOL      1.807897
    174 O23         1.1960   -0.2170   -4.4310 oh        1 MOL     -0.832618
    175 H82         1.8350   -0.9190   -4.5110 ho        1 MOL      0.398767
    176 H83         1.2840    0.2760   -5.2570 ho        1 MOL      0.398767
    177 O24         1.3840    2.0870   -2.7570 oh        1 MOL     -0.832618
    178 H84         1.8710    2.2790   -3.5600 ho        1 MOL      0.398767
    179 H85         0.7920    2.8350   -2.6500 ho        1 MOL      0.398767
    180 O25        -0.2610   -2.2930   -3.1540 oh        1 MOL     -0.832618
    181 H86        -0.1450   -2.1000   -4.0870 ho        1 MOL      0.398767
    182 H87        -1.0160   -2.8780   -3.1220 ho        1 MOL      0.398767
@<TRIPOS>BOND
     1    1    2 1   
     2    1    4 1   
     3    1    5 1   
     4    1    6 1   
     5    2    3 2   
     6    2    7 1   
     7    7    8 1   
     8    7   15 1   
     9    8    9 1   
    10    8   11 1   
    11    8   16 1   
    12    9   10 2   
    13    9   19 1   
    14   11   12 1   
    15   11   17 1   
    16   11   18 1   
    17   12   13 1   
    18   12   14 1   
    19   19   20 1   
    20   19   28 1   
    21   20   21 1   
    22   20   23 1   
    23   20   29 1   
    24   21   22 2   
    25   21   41 1   
    26   23   24 1   
    27   23   30 1   
    28   23   31 1   
    29   24   25 1   
    30   24   32 1   
    31   24   33 1   
    32   25   26 1   
    33   25   34 1   
    34   25   35 1   
    35   26   27 1   
    36   26   36 1   
    37   26   37 1   
    38   27   38 1   
    39   27   39 1   
    40   27   40 1   
    41   41   42 1   
    42   41   49 1   
    43   42   43 1   
    44   42   45 1   
    45   42   50 1   
    46   43   44 2   
    47   43   53 1   
    48   45   46 1   
    49   45   51 1   
    50   45   52 1   
    51   46   47 1   
    52   46   48 1   
    53   53   54 1   
    54   53   57 1   
    55   54   55 1   
    56   54   58 1   
    57   54   59 1   
    58   55   56 2   
    59   55   60 1   
    60   60   61 1   
    61   60   68 1   
    62   61   62 1   
    63   61   64 1   
    64   61   69 1   
    65   62   63 2   
    66   62   74 1   
    67   64   65 1   
    68   64   70 1   
    69   64   71 1   
    70   65   66 1   
    71   65   67 2   
    72   66   72 1   
    73   66   73 1   
    74   74   75 1   
    75   74   78 1   
    76   75   76 1   
    77   75   79 1   
    78   75   80 1   
    79   76   77 2   
    80   76   81 1   
    81   81   82 1   
    82   81   93 1   
    83   82   83 1   
    84   82   85 1   
    85   82   94 1   
    86   83   84 2   
    87   83  102 1   
    88   85   86 1   
    89   85   95 1   
    90   85   96 1   
    91   86   87 ar  
    92   86   88 ar  
    93   87   89 ar  
    94   87   97 1   
    95   88   90 ar  
    96   88   98 1   
    97   89   91 ar  
    98   89   99 1   
    99   90   91 ar  
   100   90  100 1   
   101   91   92 1   
   102   92  101 1   
   103  102  103 1   
   104  102  110 1   
   105  103  104 1   
   106  103  106 1   
   107  103  111 1   
   108  104  105 2   
   109  104  121 1   
   110  106  107 1   
   111  106  108 1   
   112  106  112 1   
   113  107  109 1   
   114  107  113 1   
   115  107  114 1   
   116  108  115 1   
   117  108  116 1   
   118  108  117 1   
   119  109  118 1   
   120  109  119 1   
   121  109  120 1   
   122  121  122 1   
   123  121  127 1   
   124  122  123 1   
   125  122  125 1   
   126  122  128 1   
   127  123  124 2   
   128  123  132 1   
   129  125  126 1   
   130  125  129 1   
   131  125  130 1   
   132  126  131 1   
   133  132  133 1   
   134  132  137 1   
   135  133  134 1   
   136  133  136 1   
   137  133  138 1   
   138  134  135 2   
   139  134  142 1   
   140  136  139 1   
   141  136  140 1   
   142  136  141 1   
   143  142  143 1   
   144  142  147 1   
   145  143  144 1   
   146  143  146 1   
   147  143  148 1   
   148  144  145 2   
   149  144  152 1   
   150  146  149 1   
   151  146  150 1   
   152  146  151 1   
   153  152  153 1   
   154  152  161 1   
   155  153  154 1   
   156  153  156 1   
   157  153  162 1   
   158  154  155 2   
   159  154  167 1   
   160  156  157 1   
   161  156  163 1   
   162  156  164 1   
   163  157  158 1   
   164  157  165 1   
   165  157  166 1   
   166  158  159 1   
   167  158  160 1   
   168  167  168 1   
   169  167  172 1   
   170  168  169 1   
   171  168  170 1   
   172  168  171 1   
   173  174  175 1   
   174  174  176 1   
   175  177  178 1   
   176  177  179 1   
   177  180  181 1   
   178  180  182 1   
@<TRIPOS>SUBSTRUCTURE
     1 MOL         1 TEMP              0 ****  ****    0 ROOT
