@<TRIPOS>MOLECULE
MOL
  186   183     1     0     0
SMALL
resp


@<TRIPOS>ATOM
      1 C1          0.6590    3.5960   -5.5320 c3        1 MOL     -0.532287
      2 C2          0.7390    2.9250   -4.1380 c         1 MOL      0.785237
      3 O1         -0.0690    3.1500   -3.2460 o         1 MOL     -0.631009
      4 H1          1.5680    3.3760   -6.0930 hc        1 MOL      0.135183
      5 H2         -0.2040    3.2090   -6.0730 hc        1 MOL      0.135183
      6 H3          0.5600    4.6750   -5.4110 hc        1 MOL      0.135183
      7 N1          1.8440    2.2230   -3.8250 n         1 MOL     -0.599094
      8 C3          2.2920    1.8810   -2.4540 c3        1 MOL      0.042713
      9 C4          2.8290    3.0370   -1.6580 c         1 MOL      0.610384
     10 O2          3.7940    3.5940   -2.0840 o         1 MOL     -0.592028
     11 C5          3.3160    0.7570   -2.5040 c3        1 MOL     -0.168482
     12 C6          3.9150    0.1880   -1.2680 c         1 MOL      0.701061
     13 O3          3.3540    0.4350   -0.1470 o         1 MOL     -0.603265
     14 O4          5.0510   -0.2990   -1.3640 o         1 MOL     -0.603265
     15 H4          2.3980    1.8950   -4.6050 hn        1 MOL      0.326231
     16 H5          1.4760    1.3660   -1.9380 h1        1 MOL      0.012427
     17 H6          4.0540    1.0710   -3.2450 hc        1 MOL      0.041113
     18 H7          2.8960   -0.0750   -3.0560 hc        1 MOL      0.041113
     19 N2          2.2310    3.4350   -0.5280 n         1 MOL     -0.313351
     20 C7          2.5880    4.5290    0.3270 c3        1 MOL      0.062927
     21 C8          3.4600    4.2100    1.5910 c         1 MOL      0.423020
     22 O5          3.7080    5.0420    2.3920 o         1 MOL     -0.533956
     23 C9          1.3660    5.4520    0.7170 c3        1 MOL      0.022332
     24 C10         0.6700    5.7150   -0.6280 c3        1 MOL      0.028909
     25 C11         1.3160    6.7630   -1.5670 c3        1 MOL     -0.162473
     26 C12         0.4750    6.8280   -2.8340 c3        1 MOL      0.148629
     27 N3          1.1530    7.5780   -3.9030 n4        1 MOL     -0.514417
     28 H8          1.4680    2.8630   -0.1700 hn        1 MOL      0.345202
     29 H9          3.3320    5.1250   -0.2060 h1        1 MOL      0.005893
     30 H10         1.6330    6.3730    1.2190 hc        1 MOL      0.027806
     31 H11         0.6640    4.9090    1.3510 hc        1 MOL      0.027806
     32 H12        -0.3030    6.1010   -0.3080 hc        1 MOL     -0.012654
     33 H13         0.3750    4.8010   -1.1430 hc        1 MOL     -0.012654
     34 H14         2.3230    6.4100   -1.7580 hc        1 MOL      0.062903
     35 H15         1.4590    7.6870   -1.0090 hc        1 MOL      0.062903
     36 H16        -0.4840    7.2920   -2.6230 hx        1 MOL      0.062583
     37 H17         0.3210    5.8060   -3.2020 hx        1 MOL      0.062583
     38 H18         0.5420    7.7320   -4.6880 hn        1 MOL      0.360999
     39 H19         1.3600    8.5150   -3.5850 hn        1 MOL      0.360999
     40 H20         2.0060    7.0780   -4.1210 hn        1 MOL      0.360999
     41 N4          3.7590    2.9190    1.8140 n         1 MOL     -0.006156
     42 C13         4.6170    2.5300    2.9840 c3        1 MOL     -0.272443
     43 C14         6.0390    2.0900    2.4960 c         1 MOL      0.574499
     44 O6          6.9900    2.3470    3.2260 o         1 MOL     -0.545459
     45 C15         3.9680    1.3760    3.7430 c3        1 MOL      0.435521
     46 C16         2.4600    1.4720    3.8280 c         1 MOL      0.542860
     47 O7          1.7990    0.8410    3.0230 o         1 MOL     -0.711342
     48 O8          1.9890    2.2380    4.6880 o         1 MOL     -0.711342
     49 H21         3.4090    2.2540    1.1500 hn        1 MOL     -0.104748
     50 H22         4.7900    3.3940    3.6310 h1        1 MOL      0.113460
     51 H23         4.3500    1.3350    4.7680 hc        1 MOL     -0.107030
     52 H24         4.2430    0.4140    3.3050 hc        1 MOL     -0.107030
     53 N5          6.1470    1.5580    1.2940 n         1 MOL     -0.420970
     54 C17         7.4390    1.0030    0.8550 c3        1 MOL     -0.069280
     55 C18         7.5790   -0.4650    1.2650 c         1 MOL      0.481954
     56 O9          8.5980   -0.9230    1.7980 o         1 MOL     -0.555084
     57 H25         5.3090    1.3190    0.7730 hn        1 MOL      0.288981
     58 H26         8.2510    1.5930    1.2930 h1        1 MOL      0.078622
     59 H27         7.4580    1.0630   -0.2370 h1        1 MOL      0.078622
     60 N6          6.4940   -1.2080    1.0240 n         1 MOL     -0.233862
     61 C19         6.2650   -2.6750    1.3360 c3        1 MOL     -0.108963
     62 C20         5.9630   -3.5600    0.1550 c         1 MOL      0.467681
     63 O10         5.5900   -4.7550    0.3640 o         1 MOL     -0.528657
     64 C21         5.2620   -2.7000    2.5340 c3        1 MOL     -0.088424
     65 C22         3.8680   -2.2940    2.1160 c         1 MOL      0.678130
     66 O11         3.1510   -1.6770    2.8740 o         1 MOL     -0.709316
     67 O12         3.3830   -2.4990    0.9630 o         1 MOL     -0.709316
     68 H28         5.7560   -0.8590    0.4390 hn        1 MOL      0.218256
     69 H29         7.1660   -3.1580    1.7050 h1        1 MOL      0.131760
     70 H30         5.5730   -1.9330    3.2580 hc        1 MOL      0.061038
     71 H31         5.3430   -3.6660    3.0430 hc        1 MOL      0.061038
     72 N7          6.0090   -3.0480   -1.0920 n         1 MOL     -0.335956
     73 C23         5.7820   -3.7860   -2.3550 c3        1 MOL     -0.069714
     74 C24         4.3350   -4.2860   -2.4980 c         1 MOL      0.480465
     75 O13         4.1540   -5.2320   -3.2370 o         1 MOL     -0.563044
     76 H32         6.0590   -2.0430   -1.0900 hn        1 MOL      0.212247
     77 H33         6.4040   -4.6720   -2.4600 h1        1 MOL      0.095265
     78 H34         5.9730   -3.1410   -3.2060 h1        1 MOL      0.095265
     79 N8          3.4110   -3.7890   -1.7230 n         1 MOL     -0.117332
     80 C25         2.0620   -4.2920   -1.7320 c3        1 MOL     -0.286842
     81 C26         1.0320   -3.2340   -1.7980 c         1 MOL      0.662245
     82 O14         1.0790   -2.2280   -1.0850 o         1 MOL     -0.671777
     83 C27         1.7780   -5.3090   -0.5860 c3        1 MOL      0.563769
     84 C28         2.5200   -6.6350   -0.7520 c3        1 MOL     -0.522615
     85 O15         2.0180   -4.8070    0.7180 oh        1 MOL     -0.691573
     86 H35         3.6780   -3.1860   -0.9610 hn        1 MOL      0.085191
     87 H36         1.9020   -4.9190   -2.6090 h1        1 MOL      0.100626
     88 H37         0.7120   -5.5570   -0.6240 h1        1 MOL     -0.025000
     89 H38         2.7680   -4.2100    0.7760 ho        1 MOL      0.414384
     90 H39         2.3020   -7.0380   -1.7430 hc        1 MOL      0.134994
     91 H40         3.5990   -6.5170   -0.6840 hc        1 MOL      0.134994
     92 H41         2.1990   -7.3180    0.0380 hc        1 MOL      0.134994
     93 N9         -0.0910   -3.5410   -2.5050 n         1 MOL     -0.535171
     94 C29        -1.3450   -2.7240   -2.4860 c3        1 MOL      0.190794
     95 C30        -2.3090   -3.3210   -1.3950 c         1 MOL      0.446399
     96 O16        -2.5720   -4.5070   -1.3640 o         1 MOL     -0.526230
     97 C31        -1.8930   -2.3510   -3.8400 c3        1 MOL     -0.067648
     98 C32        -0.9170   -1.5490   -4.6820 c3        1 MOL     -0.061652
     99 C33        -3.2420   -1.5720   -3.7580 c3        1 MOL      0.034123
    100 C34        -0.2920   -0.2620   -4.1700 c3        1 MOL      0.032489
    101 H42        -0.0060   -4.3660   -3.0830 hn        1 MOL      0.297608
    102 H43        -1.0820   -1.7670   -2.0370 h1        1 MOL      0.095467
    103 H44        -2.1980   -3.2230   -4.4140 hc        1 MOL      0.044165
    104 H45        -1.3370   -1.4390   -5.6860 hc        1 MOL      0.007986
    105 H46        -0.0700   -2.2010   -4.8940 hc        1 MOL      0.007986
    106 H47        -4.1150   -2.1980   -3.5580 hc        1 MOL      0.009628
    107 H48        -3.2500   -0.7460   -3.0540 hc        1 MOL      0.009628
    108 H49        -3.5660   -1.2080   -4.7330 hc        1 MOL      0.009628
    109 H50        -1.1150    0.4060   -3.8930 hc        1 MOL      0.016293
    110 H51         0.3700   -0.3180   -3.3130 hc        1 MOL      0.016293
    111 H52         0.2340    0.1360   -5.0280 hc        1 MOL      0.016293
    112 N10        -2.8760   -2.3520   -0.5870 n         1 MOL      0.023922
    113 C35        -3.9260   -2.7010    0.3710 c3        1 MOL      0.074775
    114 C36        -5.2960   -2.2490   -0.0910 c         1 MOL      0.284406
    115 O17        -5.3920   -1.5330   -1.1170 o         1 MOL     -0.333386
    116 C37        -3.6450   -1.9620    1.6720 c3        1 MOL      0.356014
    117 C38        -2.4130   -2.5610    2.3170 c3        1 MOL     -0.355953
    118 O18        -3.3540   -0.6290    1.4170 oh        1 MOL     -0.668936
    119 H53        -2.7570   -1.3720   -0.7890 hn        1 MOL     -0.310588
    120 H54        -3.9820   -3.7870    0.4850 h1        1 MOL      0.052791
    121 H55        -4.4370   -2.2440    2.3630 h1        1 MOL      0.011403
    122 H56        -2.4140   -0.6350    1.2160 ho        1 MOL      0.400403
    123 H57        -1.4850   -2.2730    1.8370 hc        1 MOL      0.084976
    124 H58        -2.3180   -2.3170    3.3700 hc        1 MOL      0.084976
    125 H59        -2.5800   -3.6440    2.2790 hc        1 MOL      0.084976
    126 N11        -6.3540   -2.5370    0.6580 n         1 MOL     -0.318252
    127 C39        -7.6200   -1.8480    0.5430 c3        1 MOL     -0.015575
    128 C40        -7.5470   -0.3610    0.5750 c         1 MOL      0.400020
    129 O19        -8.1660    0.1970   -0.2460 o         1 MOL     -0.467483
    130 C41        -8.5460   -2.2890    1.6770 c3        1 MOL      0.263949
    131 C42        -9.2080   -3.6210    1.4340 c3        1 MOL     -0.360863
    132 O20        -7.9570   -2.2750    2.9000 oh        1 MOL     -0.641349
    133 H60        -6.2520   -3.2540    1.3710 hn        1 MOL      0.284013
    134 H61        -8.0610   -2.1010   -0.4160 h1        1 MOL      0.118394
    135 H62        -9.3800   -1.5880    1.6820 h1        1 MOL      0.033616
    136 H63        -8.6530   -2.5030    3.5220 ho        1 MOL      0.425507
    137 H64        -8.5010   -4.4120    1.2020 hc        1 MOL      0.102300
    138 H65        -9.8340   -3.8890    2.2920 hc        1 MOL      0.102300
    139 H66        -9.8500   -3.4390    0.5720 hc        1 MOL      0.102300
    140 N12        -6.7740    0.2170    1.5130 n         1 MOL     -0.194937
    141 C43        -6.6040    1.6920    1.6900 c3        1 MOL      0.001202
    142 C44        -5.8600    2.4220    0.5850 c         1 MOL      0.491871
    143 O21        -5.8420    3.6270    0.5090 o         1 MOL     -0.550470
    144 C45        -6.0410    2.0010    3.0670 c3        1 MOL     -0.129122
    145 C46        -4.6940    1.3370    3.4650 c3        1 MOL      0.504713
    146 C47        -4.3910    1.6510    4.9180 c3        1 MOL     -0.309240
    147 C48        -2.9790    1.3230    5.3840 c3        1 MOL      0.304072
    148 N13        -2.9190    1.6030    6.8680 n4        1 MOL     -0.394159
    149 H67        -6.3770   -0.3590    2.2390 hn        1 MOL      0.194644
    150 H68        -7.5940    2.1430    1.6040 h1        1 MOL      0.109511
    151 H69        -6.7680    1.5350    3.7450 hc        1 MOL      0.019965
    152 H70        -5.9640    3.0830    3.1870 hc        1 MOL      0.019965
    153 H71        -3.8980    1.6880    2.8150 hc        1 MOL     -0.038613
    154 H72        -4.7810    0.2700    3.2700 hc        1 MOL     -0.038613
    155 H73        -5.0240    0.9740    5.4870 hc        1 MOL      0.033130
    156 H74        -4.5170    2.7160    5.1180 hc        1 MOL      0.033130
    157 H75        -2.2470    1.9110    4.8270 hx        1 MOL      0.021668
    158 H76        -2.8160    0.2700    5.1520 hx        1 MOL      0.021668
    159 H77        -1.9700    1.6140    7.2170 hn        1 MOL      0.330993
    160 H78        -3.3910    2.4740    7.0740 hn        1 MOL      0.330993
    161 H79        -3.4280    0.8290    7.2710 hn        1 MOL      0.330993
    162 N14        -5.1450    1.6540   -0.2200 n         1 MOL      0.051645
    163 C49        -4.3040    2.0300   -1.3530 c3        1 MOL     -0.178196
    164 C50        -4.9210    1.6360   -2.6470 c         1 MOL      0.530159
    165 O22        -4.4370    2.1930   -3.6470 o         1 MOL     -0.584667
    166 C51        -2.9060    1.4680   -1.2180 c3        1 MOL     -0.001356
    167 C52        -2.0440    1.9980   -0.1000 c3        1 MOL      0.511121
    168 C53        -0.8090    1.1660    0.1810 c         1 MOL      0.480183
    169 O23        -0.9580   -0.0880    0.3170 o         1 MOL     -0.677352
    170 O24         0.3100    1.7130    0.3540 o         1 MOL     -0.677352
    171 H80        -5.1780    0.6950    0.0800 hn        1 MOL     -0.469091
    172 H81        -4.2580    3.1120   -1.4090 h1        1 MOL      0.120400
    173 H82        -2.3120    1.6500   -2.1130 hc        1 MOL      0.078603
    174 H83        -3.0160    0.3940   -1.0390 hc        1 MOL      0.078603
    175 H84        -2.6670    2.1180    0.7800 hc        1 MOL     -0.112654
    176 H85        -1.7130    3.0130   -0.3010 hc        1 MOL     -0.112654
    177 N15        -5.9630    0.8980   -2.7870 n         1 MOL     -0.254345
    178 C54        -6.5160    0.3610   -4.0820 c3        1 MOL     -0.117822
    179 H86        -5.8550   -0.4180   -4.4630 h1        1 MOL      0.081047
    180 H87        -7.5070   -0.0560   -3.9090 h1        1 MOL      0.081047
    181 H88        -6.5830    1.1680   -4.8110 h1        1 MOL      0.081047
    182 H89        -6.4020    0.4920   -1.9630 hn        1 MOL      0.261556
    183 Ca1         1.3920   -0.7810    1.1080 Ca        1 MOL      1.743355
    184 O25         0.5830   -2.9280    2.6230 oh        1 MOL     -0.931028
    185 H90         1.4820   -3.2240    2.7780 ho        1 MOL      0.447339
    186 H91         0.0420   -3.7080    2.7520 ho        1 MOL      0.447339
@<TRIPOS>BOND
     1    1    2 1   
     2    1    4 1   
     3    1    5 1   
     4    1    6 1   
     5    2    3 2   
     6    2    7 1   
     7    7    8 1   
     8    7   15 1   
     9    8    9 1   
    10    8   11 1   
    11    8   16 1   
    12    9   10 2   
    13    9   19 1   
    14   11   12 1   
    15   11   17 1   
    16   11   18 1   
    17   12   13 1   
    18   12   14 1   
    19   19   20 1   
    20   19   28 1   
    21   20   21 1   
    22   20   23 1   
    23   20   29 1   
    24   21   22 2   
    25   21   41 1   
    26   23   24 1   
    27   23   30 1   
    28   23   31 1   
    29   24   25 1   
    30   24   32 1   
    31   24   33 1   
    32   25   26 1   
    33   25   34 1   
    34   25   35 1   
    35   26   27 1   
    36   26   36 1   
    37   26   37 1   
    38   27   38 1   
    39   27   39 1   
    40   27   40 1   
    41   41   42 1   
    42   41   49 1   
    43   42   43 1   
    44   42   45 1   
    45   42   50 1   
    46   43   44 2   
    47   43   53 1   
    48   45   46 1   
    49   45   51 1   
    50   45   52 1   
    51   46   47 1   
    52   46   48 1   
    53   53   54 1   
    54   53   57 1   
    55   54   55 1   
    56   54   58 1   
    57   54   59 1   
    58   55   56 2   
    59   55   60 1   
    60   60   61 1   
    61   60   68 1   
    62   61   62 1   
    63   61   64 1   
    64   61   69 1   
    65   62   63 2   
    66   62   72 1   
    67   64   65 1   
    68   64   70 1   
    69   64   71 1   
    70   65   66 1   
    71   65   67 1   
    72   72   73 1   
    73   72   76 1   
    74   73   74 1   
    75   73   77 1   
    76   73   78 1   
    77   74   75 2   
    78   74   79 1   
    79   79   80 1   
    80   79   86 1   
    81   80   81 1   
    82   80   83 1   
    83   80   87 1   
    84   81   82 2   
    85   81   93 1   
    86   83   84 1   
    87   83   85 1   
    88   83   88 1   
    89   84   90 1   
    90   84   91 1   
    91   84   92 1   
    92   85   89 1   
    93   93   94 1   
    94   93  101 1   
    95   94   95 1   
    96   94   97 1   
    97   94  102 1   
    98   95   96 2   
    99   95  112 1   
   100   97   98 1   
   101   97   99 1   
   102   97  103 1   
   103   98  100 1   
   104   98  104 1   
   105   98  105 1   
   106   99  106 1   
   107   99  107 1   
   108   99  108 1   
   109  100  109 1   
   110  100  110 1   
   111  100  111 1   
   112  112  113 1   
   113  112  119 1   
   114  113  114 1   
   115  113  116 1   
   116  113  120 1   
   117  114  115 2   
   118  114  126 1   
   119  116  117 1   
   120  116  118 1   
   121  116  121 1   
   122  117  123 1   
   123  117  124 1   
   124  117  125 1   
   125  118  122 1   
   126  126  127 1   
   127  126  133 1   
   128  127  128 1   
   129  127  130 1   
   130  127  134 1   
   131  128  129 2   
   132  128  140 1   
   133  130  131 1   
   134  130  132 1   
   135  130  135 1   
   136  131  137 1   
   137  131  138 1   
   138  131  139 1   
   139  132  136 1   
   140  140  141 1   
   141  140  149 1   
   142  141  142 1   
   143  141  144 1   
   144  141  150 1   
   145  142  143 2   
   146  142  162 1   
   147  144  145 1   
   148  144  151 1   
   149  144  152 1   
   150  145  146 1   
   151  145  153 1   
   152  145  154 1   
   153  146  147 1   
   154  146  155 1   
   155  146  156 1   
   156  147  148 1   
   157  147  157 1   
   158  147  158 1   
   159  148  159 1   
   160  148  160 1   
   161  148  161 1   
   162  162  163 1   
   163  162  171 1   
   164  163  164 1   
   165  163  166 1   
   166  163  172 1   
   167  164  165 2   
   168  164  177 1   
   169  166  167 1   
   170  166  173 1   
   171  166  174 1   
   172  167  168 1   
   173  167  175 1   
   174  167  176 1   
   175  168  169 1   
   176  168  170 1   
   177  177  178 1   
   178  177  182 1   
   179  178  179 1   
   180  178  180 1   
   181  178  181 1   
   182  184  185 1   
   183  184  186 1   
@<TRIPOS>SUBSTRUCTURE
     1 MOL         1 TEMP              0 ****  ****    0 ROOT
