@<TRIPOS>MOLECULE
MOL
  179   176     1     0     0
SMALL
resp


@<TRIPOS>ATOM
      1 C1         -2.4760   -2.9910    6.0720 c3        1 MOL     -0.349982
      2 C2         -2.0580   -2.9680    4.5950 c         1 MOL      0.733199
      3 O1         -2.8990   -2.8170    3.6530 o         1 MOL     -0.593880
      4 H1         -1.8780   -3.7280    6.6070 hc        1 MOL      0.097357
      5 H2         -2.3170   -2.0070    6.5100 hc        1 MOL      0.097357
      6 H3         -3.5310   -3.2570    6.1470 hc        1 MOL      0.097357
      7 N1         -0.7120   -3.0550    4.2690 n         1 MOL     -0.592006
      8 C3         -0.2530   -2.9580    2.8920 c3        1 MOL     -0.059447
      9 C4         -0.4820   -4.2270    1.9890 c         1 MOL      0.601643
     10 O2         -0.2740   -5.4170    2.3850 o         1 MOL     -0.546225
     11 C5          1.2520   -2.5220    2.8730 c3        1 MOL     -0.099032
     12 C6          1.7250   -2.0180    1.5690 c         1 MOL      0.693807
     13 O3          0.9140   -1.6990    0.6460 o         1 MOL     -0.728483
     14 O4          2.9350   -1.8720    1.3560 o         1 MOL     -0.728483
     15 H4         -0.0310   -2.8950    4.9940 hn        1 MOL      0.319803
     16 H5         -0.8300   -2.1530    2.4340 h1        1 MOL      0.064341
     17 H6          1.8890   -3.3530    3.1630 hc        1 MOL      0.073146
     18 H7          1.5240   -1.7420    3.5870 hc        1 MOL      0.073146
     19 N2         -1.0230   -4.0370    0.7150 n         1 MOL     -0.314623
     20 C7         -1.3270   -5.0970   -0.3090 c3        1 MOL     -0.190327
     21 C8         -0.1070   -5.4860   -1.0900 c         1 MOL      0.646803
     22 O5         -0.1590   -6.5970   -1.5850 o         1 MOL     -0.584041
     23 C9         -2.4560   -4.6410   -1.2040 c3        1 MOL     -0.024224
     24 C10        -3.7280   -4.5330   -0.3200 c3        1 MOL     -0.224427
     25 C11        -4.9460   -4.0820   -1.0910 c3        1 MOL      0.073338
     26 C12        -5.3950   -5.1870   -2.0450 c3        1 MOL     -0.044279
     27 N3         -6.7440   -4.8500   -2.6390 n4        1 MOL     -0.291854
     28 H8         -1.1700   -3.0700    0.4300 hn        1 MOL      0.277367
     29 H9         -1.6460   -6.0100    0.2020 h1        1 MOL      0.131137
     30 H10        -2.5440   -5.3250   -2.0470 hc        1 MOL      0.045479
     31 H11        -2.1500   -3.7030   -1.6730 hc        1 MOL      0.045479
     32 H12        -3.5830   -3.8440    0.5140 hc        1 MOL      0.100063
     33 H13        -3.8400   -5.5400    0.0690 hc        1 MOL      0.100063
     34 H14        -4.6930   -3.2490   -1.7460 hc        1 MOL      0.064597
     35 H15        -5.7830   -3.9640   -0.3980 hc        1 MOL      0.064597
     36 H16        -5.4710   -6.1120   -1.4620 hx        1 MOL      0.091379
     37 H17        -4.6660   -5.2210   -2.8460 hx        1 MOL      0.091379
     38 H18        -6.7920   -3.9390   -3.0870 hn        1 MOL      0.307331
     39 H19        -6.9330   -5.4820   -3.4000 hn        1 MOL      0.307331
     40 H20        -7.5120   -4.9040   -1.9900 hn        1 MOL      0.307331
     41 N4          1.0500   -4.7880   -1.0180 n         1 MOL     -0.363184
     42 C13         2.2510   -5.2350   -1.7290 c3        1 MOL     -0.032378
     43 C14         3.5490   -5.0480   -0.8970 c         1 MOL      0.465778
     44 O6          4.6400   -5.5080   -1.2100 o         1 MOL     -0.519391
     45 C15         2.3820   -4.6640   -3.1570 c3        1 MOL     -0.062547
     46 C16         2.2310   -3.1740   -3.2960 c         1 MOL      0.765396
     47 O7          2.0720   -2.4640   -2.2600 o         1 MOL     -0.729588
     48 O8          2.3590   -2.6400   -4.4140 o         1 MOL     -0.729588
     49 H21         1.0660   -3.8580   -0.6060 hn        1 MOL      0.215340
     50 H22         2.1530   -6.3200   -1.7930 h1        1 MOL      0.111820
     51 H23         1.6190   -5.2060   -3.7330 hc        1 MOL      0.024578
     52 H24         3.3690   -4.9770   -3.4910 hc        1 MOL      0.024578
     53 N5          3.3800   -4.4790    0.2850 n         1 MOL     -0.202852
     54 C17         4.4850   -4.4760    1.2230 c3        1 MOL     -0.031737
     55 C18         5.6290   -3.5570    0.8780 c         1 MOL      0.473861
     56 O9          6.7780   -3.7750    1.2240 o         1 MOL     -0.557676
     57 H25         2.5150   -4.0860    0.6160 hn        1 MOL      0.108747
     58 H26         4.9250   -5.4700    1.3120 h1        1 MOL      0.064364
     59 H27         4.1130   -4.2010    2.2080 h1        1 MOL      0.064364
     60 N6          5.2630   -2.4810    0.1660 n         1 MOL     -0.126222
     61 C19         6.2440   -1.6890   -0.6830 c3        1 MOL     -0.043144
     62 C20         6.7050   -0.4270    0.0200 c         1 MOL      0.300088
     63 O10         7.6700    0.2670   -0.4050 o         1 MOL     -0.498419
     64 C21         5.5580   -1.3590   -1.9800 c3        1 MOL     -0.214665
     65 C22         4.8890    0.0370   -2.0540 c         1 MOL      0.802378
     66 N7          5.1370    0.7860   -3.0760 n         1 MOL     -0.779502
     67 O11         4.0330    0.3390   -1.2550 o         1 MOL     -0.690018
     68 H28         4.2850   -2.2920    0.0700 hn        1 MOL      0.096566
     69 H29         7.1290   -2.2910   -0.8950 h1        1 MOL      0.149806
     70 H30         4.8290   -2.1110   -2.2640 hc        1 MOL      0.074402
     71 H31         6.3030   -1.2710   -2.7760 hc        1 MOL      0.074402
     72 H32         5.8910    0.5870   -3.7140 hn        1 MOL      0.374583
     73 H33         4.5430    1.5960   -3.1640 hn        1 MOL      0.374583
     74 N8          6.0150   -0.0810    1.1140 n         1 MOL     -0.059999
     75 C23         6.4890    0.9750    1.9830 c3        1 MOL     -0.257305
     76 C24         5.5370    2.2100    1.9380 c         1 MOL      0.596797
     77 O12         5.7420    3.1830    2.6730 o         1 MOL     -0.554747
     78 H34         5.2700   -0.7210    1.3770 hn        1 MOL      0.176497
     79 H35         7.4880    1.3040    1.7080 h1        1 MOL      0.131295
     80 H36         6.6010    0.6580    3.0210 h1        1 MOL      0.131295
     81 N9          4.4110    2.1300    1.1500 n         1 MOL     -0.439342
     82 C25         3.4210    3.1640    1.1940 c3        1 MOL      0.057111
     83 C26         1.9750    2.5460    1.0270 c         1 MOL      0.537411
     84 O13         1.8170    1.5730    0.3140 o         1 MOL     -0.507062
     85 C27         3.6330    3.9660   -0.0720 c3        1 MOL      0.169322
     86 C28         4.9370    4.8300   -0.2050 ca        1 MOL     -0.010416
     87 C29         6.1040    4.2760   -0.8270 ca        1 MOL     -0.188924
     88 C30         4.9470    6.2390    0.0950 ca        1 MOL     -0.188924
     89 C31         7.2760    5.0520   -1.0990 ca        1 MOL     -0.188903
     90 C32         6.1020    7.0120   -0.1590 ca        1 MOL     -0.188903
     91 C33         7.2790    6.4290   -0.7830 ca        1 MOL      0.251839
     92 O14         8.3440    7.1400   -1.1320 oh        1 MOL     -0.413607
     93 H37         4.2890    1.2900    0.5880 hn        1 MOL      0.277175
     94 H38         3.5350    3.8540    2.0220 h1        1 MOL      0.070130
     95 H39         2.7920    4.6230   -0.2650 hc        1 MOL     -0.037183
     96 H40         3.6910    3.2440   -0.8880 hc        1 MOL     -0.037183
     97 H41         5.9940    3.2290   -1.0670 ha        1 MOL      0.118145
     98 H42         4.0090    6.7090    0.3790 ha        1 MOL      0.118145
     99 H43         8.1370    4.6310   -1.6030 ha        1 MOL      0.130987
    100 H44         6.1000    8.0830   -0.1140 ha        1 MOL      0.130987
    101 H45         8.1650    7.9970   -0.7310 ho        1 MOL      0.329296
    102 N10         1.0450    2.9920    1.7870 n         1 MOL     -0.562070
    103 C34        -0.3970    2.5380    1.8020 c3        1 MOL     -0.019054
    104 C35        -1.1430    3.5980    1.0190 c         1 MOL      0.675155
    105 O15        -1.1520    4.7290    1.4200 o         1 MOL     -0.570327
    106 C36        -0.8540    2.3440    3.2560 c3        1 MOL      0.112953
    107 C37        -0.1560    1.2120    3.9590 c3        1 MOL      0.087086
    108 C38        -2.3720    2.2730    3.3670 c3        1 MOL     -0.036104
    109 C39        -0.0540    1.1560    5.5260 c3        1 MOL     -0.329778
    110 H46         1.3770    3.6790    2.4480 hn        1 MOL      0.303427
    111 H47        -0.4960    1.5960    1.2640 h1        1 MOL      0.043829
    112 H48        -0.6610    3.2560    3.8340 hc        1 MOL      0.013124
    113 H49         0.8450    1.1140    3.5270 hc        1 MOL      0.014241
    114 H50        -0.6220    0.2680    3.6650 hc        1 MOL      0.014241
    115 H51        -2.8170    1.5560    2.6780 hc        1 MOL      0.000827
    116 H52        -2.6320    1.9420    4.3720 hc        1 MOL      0.000827
    117 H53        -2.8000    3.2750    3.2390 hc        1 MOL      0.000827
    118 H54        -1.0990    1.1690    5.8510 hc        1 MOL      0.082066
    119 H55         0.4230    0.2290    5.8480 hc        1 MOL      0.082066
    120 H56         0.4500    2.0280    5.9290 hc        1 MOL      0.082066
    121 N11        -1.7790    3.1920   -0.0740 n         1 MOL     -0.381244
    122 C40        -2.6600    4.0410   -0.7940 c3        1 MOL      0.062489
    123 C41        -4.0940    4.0420   -0.2230 c         1 MOL      0.438236
    124 O16        -4.5050    3.1890    0.6350 o         1 MOL     -0.383217
    125 C42        -2.6040    3.6610   -2.3070 c3        1 MOL     -0.130905
    126 O17        -3.7210    2.8440   -2.5390 oh        1 MOL     -0.402966
    127 H57        -1.7220    2.2040   -0.3050 hn        1 MOL      0.243276
    128 H58        -2.3250    5.0690   -0.6370 h1        1 MOL      0.055601
    129 H59        -1.7540    3.0320   -2.5510 h1        1 MOL      0.104154
    130 H60        -2.6400    4.4900   -3.0170 h1        1 MOL      0.104154
    131 H61        -3.6040    2.3870   -3.3740 ho        1 MOL      0.365838
    132 N12        -4.9730    4.9520   -0.7330 n         1 MOL     -0.484451
    133 C43        -6.3760    5.0340   -0.4000 c3        1 MOL      0.183888
    134 C44        -7.2010    3.7640   -0.8040 c         1 MOL      0.328427
    135 O18        -8.1260    3.3130   -0.1190 o         1 MOL     -0.497418
    136 C45        -6.9670    6.2990   -1.1730 c3        1 MOL     -0.325246
    137 H62        -4.6200    5.3720   -1.5840 hn        1 MOL      0.312326
    138 H63        -6.4510    5.2110    0.6740 h1        1 MOL      0.102320
    139 H64        -6.6280    6.2570   -2.2020 hc        1 MOL      0.099805
    140 H65        -8.0510    6.3090   -1.0730 hc        1 MOL      0.099805
    141 H66        -6.5860    7.2100   -0.7110 hc        1 MOL      0.099805
    142 N13        -6.7620    3.0700   -1.8600 n         1 MOL     -0.179165
    143 C46        -7.3420    1.8050   -2.3890 c3        1 MOL      0.035678
    144 C47        -7.0550    0.6290   -1.3810 c         1 MOL      0.385112
    145 O19        -7.9410   -0.1000   -1.0790 o         1 MOL     -0.506507
    146 C48        -6.8270    1.6320   -3.8130 c3        1 MOL     -0.263852
    147 H67        -5.9210    3.4270   -2.2700 hn        1 MOL      0.122630
    148 H68        -8.4070    1.9920   -2.4260 h1        1 MOL      0.116012
    149 H69        -7.2670    0.7270   -4.2400 hc        1 MOL      0.074502
    150 H70        -7.1830    2.4780   -4.3940 hc        1 MOL      0.074502
    151 H71        -5.7490    1.5250   -3.8480 hc        1 MOL      0.074502
    152 N14        -5.8300    0.5300   -0.8590 n         1 MOL     -0.111554
    153 C49        -5.4910   -0.5510    0.0810 c3        1 MOL     -0.024839
    154 C50        -6.0790   -0.2840    1.4770 c         1 MOL      0.529381
    155 O20        -6.5310   -1.1780    2.1480 o         1 MOL     -0.528322
    156 C51        -3.9290   -0.5680    0.1640 c3        1 MOL     -0.037443
    157 C52        -3.2830   -0.4520   -1.1950 c3        1 MOL      0.282815
    158 C53        -1.7730   -0.5830   -1.1780 c         1 MOL      0.593319
    159 O21        -1.1270   -1.5460   -1.7280 o         1 MOL     -0.733493
    160 O22        -1.0300    0.3040   -0.7130 o         1 MOL     -0.733493
    161 H72        -5.1400    1.1680   -1.2140 hn        1 MOL      0.083121
    162 H73        -5.8880   -1.4650   -0.3630 h1        1 MOL     -0.047195
    163 H74        -3.6160   -1.4750    0.6730 hc        1 MOL      0.021753
    164 H75        -3.5850    0.2990    0.7330 hc        1 MOL      0.021753
    165 H76        -3.6080    0.4110   -1.7840 hc        1 MOL     -0.101639
    166 H77        -3.6040   -1.2530   -1.8510 hc        1 MOL     -0.101639
    167 N15        -6.1530    1.0280    1.9040 n         1 MOL     -0.123523
    168 C54        -6.7870    1.3300    3.1820 c3        1 MOL     -0.259530
    169 H78        -6.2380    0.8380    3.9840 h1        1 MOL      0.103888
    170 H79        -6.7790    2.4080    3.3460 h1        1 MOL      0.103888
    171 H80        -7.8150    0.9700    3.1720 h1        1 MOL      0.103888
    172 H81        -5.5680    1.7050    1.4420 hn        1 MOL      0.110231
    173 Ca1         1.3300   -0.1890   -1.4010 Ca        1 MOL      1.817449
    174 O23         2.3500   -0.0930   -3.9290 oh        1 MOL     -0.945370
    175 H82         2.2530   -1.0250   -4.1220 ho        1 MOL      0.431565
    176 H83         2.7620    0.2700   -4.7140 ho        1 MOL      0.431565
    177 O24         1.8780    2.3050   -2.5210 oh        1 MOL     -0.945370
    178 H84         2.6310    2.4820   -3.0820 ho        1 MOL      0.431565
    179 H85         1.2890    3.0580   -2.6680 ho        1 MOL      0.431565
@<TRIPOS>BOND
     1    1    2 1   
     2    1    4 1   
     3    1    5 1   
     4    1    6 1   
     5    2    3 2   
     6    2    7 1   
     7    7    8 1   
     8    7   15 1   
     9    8    9 1   
    10    8   11 1   
    11    8   16 1   
    12    9   10 2   
    13    9   19 1   
    14   11   12 1   
    15   11   17 1   
    16   11   18 1   
    17   12   13 1   
    18   12   14 1   
    19   19   20 1   
    20   19   28 1   
    21   20   21 1   
    22   20   23 1   
    23   20   29 1   
    24   21   22 2   
    25   21   41 1   
    26   23   24 1   
    27   23   30 1   
    28   23   31 1   
    29   24   25 1   
    30   24   32 1   
    31   24   33 1   
    32   25   26 1   
    33   25   34 1   
    34   25   35 1   
    35   26   27 1   
    36   26   36 1   
    37   26   37 1   
    38   27   38 1   
    39   27   39 1   
    40   27   40 1   
    41   41   42 1   
    42   41   49 1   
    43   42   43 1   
    44   42   45 1   
    45   42   50 1   
    46   43   44 2   
    47   43   53 1   
    48   45   46 1   
    49   45   51 1   
    50   45   52 1   
    51   46   47 1   
    52   46   48 1   
    53   53   54 1   
    54   53   57 1   
    55   54   55 1   
    56   54   58 1   
    57   54   59 1   
    58   55   56 2   
    59   55   60 1   
    60   60   61 1   
    61   60   68 1   
    62   61   62 1   
    63   61   64 1   
    64   61   69 1   
    65   62   63 2   
    66   62   74 1   
    67   64   65 1   
    68   64   70 1   
    69   64   71 1   
    70   65   66 1   
    71   65   67 2   
    72   66   72 1   
    73   66   73 1   
    74   74   75 1   
    75   74   78 1   
    76   75   76 1   
    77   75   79 1   
    78   75   80 1   
    79   76   77 2   
    80   76   81 1   
    81   81   82 1   
    82   81   93 1   
    83   82   83 1   
    84   82   85 1   
    85   82   94 1   
    86   83   84 2   
    87   83  102 1   
    88   85   86 1   
    89   85   95 1   
    90   85   96 1   
    91   86   87 ar  
    92   86   88 ar  
    93   87   89 ar  
    94   87   97 1   
    95   88   90 ar  
    96   88   98 1   
    97   89   91 ar  
    98   89   99 1   
    99   90   91 ar  
   100   90  100 1   
   101   91   92 1   
   102   92  101 1   
   103  102  103 1   
   104  102  110 1   
   105  103  104 1   
   106  103  106 1   
   107  103  111 1   
   108  104  105 2   
   109  104  121 1   
   110  106  107 1   
   111  106  108 1   
   112  106  112 1   
   113  107  109 1   
   114  107  113 1   
   115  107  114 1   
   116  108  115 1   
   117  108  116 1   
   118  108  117 1   
   119  109  118 1   
   120  109  119 1   
   121  109  120 1   
   122  121  122 1   
   123  121  127 1   
   124  122  123 1   
   125  122  125 1   
   126  122  128 1   
   127  123  124 2   
   128  123  132 1   
   129  125  126 1   
   130  125  129 1   
   131  125  130 1   
   132  126  131 1   
   133  132  133 1   
   134  132  137 1   
   135  133  134 1   
   136  133  136 1   
   137  133  138 1   
   138  134  135 2   
   139  134  142 1   
   140  136  139 1   
   141  136  140 1   
   142  136  141 1   
   143  142  143 1   
   144  142  147 1   
   145  143  144 1   
   146  143  146 1   
   147  143  148 1   
   148  144  145 2   
   149  144  152 1   
   150  146  149 1   
   151  146  150 1   
   152  146  151 1   
   153  152  153 1   
   154  152  161 1   
   155  153  154 1   
   156  153  156 1   
   157  153  162 1   
   158  154  155 2   
   159  154  167 1   
   160  156  157 1   
   161  156  163 1   
   162  156  164 1   
   163  157  158 1   
   164  157  165 1   
   165  157  166 1   
   166  158  159 1   
   167  158  160 1   
   168  167  168 1   
   169  167  172 1   
   170  168  169 1   
   171  168  170 1   
   172  168  171 1   
   173  174  175 1   
   174  174  176 1   
   175  177  178 1   
   176  177  179 1   
@<TRIPOS>SUBSTRUCTURE
     1 MOL         1 TEMP              0 ****  ****    0 ROOT
