@<TRIPOS>MOLECULE
MOL
  189   185     1     0     0
SMALL
resp


@<TRIPOS>ATOM
      1 C1          0.8910    4.0660   -5.3970 c3        1 MOL     -0.361750
      2 C2          0.9140    3.4190   -4.0720 c         1 MOL      0.811424
      3 O1         -0.0450    3.4690   -3.3180 o         1 MOL     -0.679811
      4 H1          0.3170    3.4510   -6.0910 hc        1 MOL      0.096730
      5 H2          0.4260    5.0490   -5.3140 hc        1 MOL      0.096730
      6 H3          1.9100    4.1750   -5.7670 hc        1 MOL      0.096730
      7 N1          2.0270    2.7130   -3.7220 n         1 MOL     -0.588490
      8 C3          2.2500    2.1800   -2.3110 c3        1 MOL      0.013247
      9 C4          2.5080    3.3450   -1.3430 c         1 MOL      0.489416
     10 O2          3.3990    4.1750   -1.6070 o         1 MOL     -0.530413
     11 C5          3.4970    1.3150   -2.5030 c3        1 MOL     -0.225667
     12 C6          4.0160    0.6680   -1.2690 c         1 MOL      0.865818
     13 O3          5.0470    0.0000   -1.4860 o         1 MOL     -0.695203
     14 O4          3.4510    0.7610   -0.1370 o         1 MOL     -0.695203
     15 H4          2.7730    2.6300   -4.3980 hn        1 MOL      0.339698
     16 H5          1.3730    1.5920   -2.0490 h1        1 MOL      0.066361
     17 H6          4.3110    1.9480   -2.8540 hc        1 MOL      0.067267
     18 H7          3.3470    0.5180   -3.2330 hc        1 MOL      0.067267
     19 N2          1.7780    3.3960   -0.1780 n         1 MOL     -0.099401
     20 C7          1.5310    4.5740    0.5810 c3        1 MOL     -0.247847
     21 C8          2.3660    4.5590    1.8710 c         1 MOL      0.590267
     22 O5          2.5040    5.6400    2.4310 o         1 MOL     -0.579820
     23 C9          0.0690    4.7060    0.9550 c3        1 MOL      0.097462
     24 C10        -0.8950    4.8050   -0.3080 c3        1 MOL     -0.001257
     25 C11        -0.7690    6.1880   -0.9990 c3        1 MOL     -0.137053
     26 C12        -1.7400    6.3940   -2.2100 c3        1 MOL      0.155966
     27 N3         -2.0190    5.1750   -3.1330 n4        1 MOL     -0.352249
     28 H8          1.2920    2.5490    0.0900 hn        1 MOL      0.015703
     29 H9          1.8340    5.4100   -0.0400 h1        1 MOL      0.129433
     30 H10        -0.1770    5.5740    1.5670 hc        1 MOL      0.003007
     31 H11        -0.2360    3.8400    1.5350 hc        1 MOL      0.003007
     32 H12        -1.9010    4.4940   -0.0270 hc        1 MOL      0.018902
     33 H13        -0.6500    3.9960   -0.9930 hc        1 MOL      0.018902
     34 H14         0.2690    6.3930   -1.2660 hc        1 MOL      0.070975
     35 H15        -1.1350    6.8840   -0.2450 hc        1 MOL      0.070975
     36 H16        -1.4500    7.2990   -2.7540 hx        1 MOL      0.031596
     37 H17        -2.7060    6.6850   -1.8120 hx        1 MOL      0.031596
     38 H18        -1.1970    4.8940   -3.6540 hn        1 MOL      0.292899
     39 H19        -2.2910    4.3350   -2.6430 hn        1 MOL      0.292899
     40 H20        -2.8280    5.2760   -3.7400 hn        1 MOL      0.292899
     41 N4          3.0400    3.4520    2.3020 n         1 MOL     -0.209660
     42 C13         4.0720    3.4290    3.3160 c3        1 MOL     -0.071240
     43 C14         5.4800    3.0270    2.7370 c         1 MOL      0.417101
     44 O6          6.5010    3.2860    3.3680 o         1 MOL     -0.521229
     45 C15         3.6470    2.4900    4.4400 c3        1 MOL     -0.143377
     46 C16         2.9850    1.1850    4.1450 c         1 MOL      0.821361
     47 O7          2.3840    0.7160    5.0750 o         1 MOL     -0.712728
     48 O8          3.0210    0.7020    3.0300 o         1 MOL     -0.712728
     49 H21         2.9920    2.6040    1.7470 hn        1 MOL      0.030370
     50 H22         4.0950    4.4140    3.7820 h1        1 MOL      0.119226
     51 H23         3.0350    3.0960    5.1070 hc        1 MOL      0.048263
     52 H24         4.5190    2.3790    5.0880 hc        1 MOL      0.048263
     53 N5          5.6710    2.4640    1.5270 n         1 MOL     -0.227291
     54 C17         6.9690    2.1130    0.9340 c3        1 MOL     -0.019575
     55 C18         7.4340    0.6710    1.0580 c         1 MOL      0.513176
     56 O9          8.6310    0.4300    1.2800 o         1 MOL     -0.579063
     57 H25         4.8600    2.1930    0.9940 hn        1 MOL      0.194153
     58 H26         7.7010    2.7900    1.3750 h1        1 MOL      0.063026
     59 H27         6.9250    2.4180   -0.1130 h1        1 MOL      0.063026
     60 N6          6.4890   -0.3060    1.0360 n         1 MOL     -0.278263
     61 C19         6.7940   -1.7210    1.4960 c3        1 MOL      0.033338
     62 C20         6.8310   -2.7520    0.4030 c         1 MOL      0.303543
     63 O10         7.1270   -3.9150    0.6680 o         1 MOL     -0.507982
     64 C21         5.7540   -2.2390    2.5540 c3        1 MOL     -0.177346
     65 C22         4.3220   -2.2970    2.0510 c         1 MOL      0.760206
     66 O11         3.3770   -2.2960    2.8960 o         1 MOL     -0.733561
     67 O12         4.0600   -2.3520    0.8540 o         1 MOL     -0.733561
     68 H28         5.5190   -0.0300    0.9030 hn        1 MOL      0.165413
     69 H29         7.7840   -1.7130    1.9560 h1        1 MOL      0.126258
     70 H30         5.7160   -1.4880    3.3400 hc        1 MOL      0.063111
     71 H31         6.1730   -3.1450    3.0070 hc        1 MOL      0.063111
     72 N7          6.4290   -2.4490   -0.8540 n         1 MOL     -0.034102
     73 C23         6.4450   -3.2730   -2.0070 c3        1 MOL     -0.314697
     74 C24         5.1190   -4.0320   -2.4410 c         1 MOL      0.581060
     75 O13         5.1310   -5.0200   -3.1850 o         1 MOL     -0.580694
     76 H32         6.1920   -1.4880   -1.0560 hn        1 MOL      0.159612
     77 H33         7.1630   -4.0740   -1.8370 h1        1 MOL      0.115111
     78 H34         6.5940   -2.7380   -2.9380 h1        1 MOL      0.115111
     79 N8          4.0290   -3.5350   -1.9100 n         1 MOL     -0.214878
     80 C25         2.7090   -4.0910   -2.0050 c3        1 MOL     -0.397854
     81 C26         1.5860   -3.0190   -1.8470 c         1 MOL      0.797572
     82 O14         1.8570   -2.0370   -1.1720 o         1 MOL     -0.702753
     83 C27         2.4840   -5.2140   -0.9960 c3        1 MOL      0.515252
     84 C28         3.2930   -6.4710   -1.1600 c3        1 MOL     -0.342593
     85 O15         2.6600   -4.7550    0.2990 oh        1 MOL     -0.652329
     86 H35         4.1240   -2.8130   -1.2090 hn        1 MOL      0.223316
     87 H36         2.6600   -4.4190   -3.0440 h1        1 MOL      0.116879
     88 H37         1.4870   -5.6120   -1.1890 h1        1 MOL     -0.023194
     89 H38         3.3210   -4.0500    0.2960 ho        1 MOL      0.455163
     90 H39         4.3610   -6.3780   -0.9320 hc        1 MOL      0.087057
     91 H40         2.9580   -7.3060   -0.5480 hc        1 MOL      0.087057
     92 H41         3.1800   -6.8040   -2.1940 hc        1 MOL      0.087057
     93 N9          0.4630   -3.2480   -2.4430 n         1 MOL     -0.573499
     94 C29        -0.7200   -2.3300   -2.4610 c3        1 MOL      0.120359
     95 C30        -1.8990   -3.0890   -1.8350 c         1 MOL      0.488101
     96 O16        -2.2320   -4.2070   -2.2310 o         1 MOL     -0.554626
     97 C31        -0.8620   -1.7770   -3.8670 c3        1 MOL     -0.128924
     98 C32         0.3730   -0.8980   -4.1520 c3        1 MOL      0.096184
     99 C33        -2.1950   -1.0050   -4.0940 c3        1 MOL     -0.099027
    100 C34         0.3940   -0.3680   -5.5830 c3        1 MOL     -0.252480
    101 H42         0.3740   -4.0650   -3.0360 hn        1 MOL      0.318074
    102 H43        -0.5530   -1.3920   -1.9350 h1        1 MOL     -0.025574
    103 H44        -0.7910   -2.6210   -4.5520 hc        1 MOL      0.073839
    104 H45         1.3140   -1.4480   -4.0240 hc        1 MOL      0.042739
    105 H46         0.6080   -0.1070   -3.4340 hc        1 MOL      0.042739
    106 H47        -3.0450   -1.4160   -3.5580 hc        1 MOL      0.033456
    107 H48        -2.1550    0.0230   -3.7470 hc        1 MOL      0.033456
    108 H49        -2.4750   -0.9830   -5.1500 hc        1 MOL      0.033456
    109 H50        -0.3790    0.3600   -5.8120 hc        1 MOL      0.057446
    110 H51         1.2650    0.2700   -5.7490 hc        1 MOL      0.057446
    111 H52         0.3830   -1.1740   -6.3180 hc        1 MOL      0.057446
    112 N10        -2.3410   -2.6060   -0.6780 n         1 MOL     -0.105903
    113 C35        -3.5580   -3.0410    0.0170 c3        1 MOL      0.008654
    114 C36        -4.7260   -2.3060   -0.6100 c         1 MOL      0.256825
    115 O17        -4.5560   -1.2370   -1.2370 o         1 MOL     -0.259285
    116 C37        -3.5620   -2.5290    1.4700 c3        1 MOL      0.012186
    117 C38        -2.4200   -2.9860    2.3370 c3        1 MOL     -0.443867
    118 O18        -3.6570   -1.1910    1.6610 oh        1 MOL     -0.224389
    119 H53        -1.9030   -1.7670   -0.3380 hn        1 MOL      0.035389
    120 H54        -3.7020   -4.1170   -0.1020 h1        1 MOL      0.100440
    121 H55        -4.4420   -2.9230    1.9810 h1        1 MOL      0.030677
    122 H56        -3.3330   -1.0230    2.5440 ho        1 MOL      0.328710
    123 H57        -2.2160   -4.0190    2.0740 hc        1 MOL      0.133677
    124 H58        -1.4670   -2.4810    2.1730 hc        1 MOL      0.133677
    125 H59        -2.6040   -2.8870    3.4120 hc        1 MOL      0.133677
    126 N11        -5.9470   -2.8040   -0.3810 n         1 MOL     -0.262402
    127 C39        -7.2120   -2.0520   -0.6310 c3        1 MOL     -0.145894
    128 C40        -7.2640   -0.5430   -0.2200 c         1 MOL      0.385228
    129 O19        -7.7970    0.2820   -1.0280 o         1 MOL     -0.481795
    130 C41        -8.4930   -2.6840   -0.0260 c3        1 MOL      0.239833
    131 C42        -8.9270   -3.8880   -0.7870 c3        1 MOL     -0.411194
    132 O20        -8.3280   -3.0370    1.2880 oh        1 MOL     -0.626146
    133 H60        -5.9700   -3.6370    0.1920 hn        1 MOL      0.280516
    134 H61        -7.3660   -2.0570   -1.7150 h1        1 MOL      0.162522
    135 H62        -9.2450   -1.9010   -0.0560 h1        1 MOL      0.065190
    136 H63        -9.2320   -3.2490    1.5340 ho        1 MOL      0.419400
    137 H64        -8.2570   -4.6990   -0.4970 hc        1 MOL      0.120389
    138 H65        -9.9570   -4.1930   -0.5650 hc        1 MOL      0.120389
    139 H66        -8.7080   -3.7640   -1.8490 hc        1 MOL      0.120389
    140 N12        -6.5700   -0.2280    0.8970 n         1 MOL     -0.217537
    141 C43        -6.4920    1.1430    1.4350 c3        1 MOL     -0.063112
    142 C44        -5.7350    2.0980    0.5130 c         1 MOL      0.411963
    143 O21        -5.8620    3.3050    0.5550 o         1 MOL     -0.526239
    144 C45        -5.9630    1.0630    2.8850 c3        1 MOL      0.013886
    145 C46        -6.6870    0.0330    3.8330 c3        1 MOL     -0.175866
    146 C47        -6.0170   -0.0400    5.2330 c3        1 MOL      0.127988
    147 C48        -7.0020   -0.6410    6.2040 c3        1 MOL      0.076579
    148 N13        -6.5350   -0.9110    7.6010 n4        1 MOL     -0.368924
    149 H67        -6.0200   -0.9700    1.3010 hn        1 MOL      0.249007
    150 H68        -7.4980    1.5510    1.5790 h1        1 MOL      0.115331
    151 H69        -6.0200    2.0260    3.3750 hc        1 MOL      0.052472
    152 H70        -4.8790    0.9170    2.7910 hc        1 MOL      0.052472
    153 H71        -6.6240   -0.9670    3.4080 hc        1 MOL      0.044457
    154 H72        -7.7400    0.2420    3.9730 hc        1 MOL      0.044457
    155 H73        -5.6240    0.9010    5.6220 hc        1 MOL     -0.012328
    156 H74        -5.1470   -0.6810    5.1080 hc        1 MOL     -0.012328
    157 H75        -7.3140   -1.5920    5.7650 hx        1 MOL      0.069642
    158 H76        -7.9000   -0.0300    6.2210 hx        1 MOL      0.069642
    159 H77        -7.3420   -1.0810    8.1870 hn        1 MOL      0.314956
    160 H78        -5.7530   -1.5510    7.6660 hn        1 MOL      0.314956
    161 H79        -6.1220   -0.1110    8.0560 hn        1 MOL      0.314956
    162 N14        -4.8330    1.5500   -0.3160 n         1 MOL     -0.009090
    163 C49        -3.8390    2.2640   -1.2030 c3        1 MOL     -0.289469
    164 C50        -4.3840    2.3220   -2.7130 c         1 MOL      0.513275
    165 O22        -3.7370    2.7330   -3.6240 o         1 MOL     -0.516821
    166 C51        -2.4960    1.4740   -1.1040 c3        1 MOL      0.031191
    167 C52        -1.9720    1.4600    0.3660 c3        1 MOL      0.367485
    168 C53        -0.5900    0.7670    0.5760 c         1 MOL      0.254165
    169 O23        -0.3840   -0.3980    0.1290 o         1 MOL     -0.450377
    170 O24         0.4260    1.2710    1.1610 o         1 MOL     -0.450377
    171 H80        -4.9130    0.5430   -0.3730 hn        1 MOL     -0.147786
    172 H81        -3.6810    3.3010   -0.8760 h1        1 MOL      0.122670
    173 H82        -1.7440    1.9410   -1.7480 hc        1 MOL      0.071712
    174 H83        -2.7570    0.4760   -1.4490 hc        1 MOL      0.071712
    175 H84        -2.6510    0.9850    1.0610 hc        1 MOL     -0.116019
    176 H85        -1.8860    2.5050    0.6720 hc        1 MOL     -0.116019
    177 N15        -5.5520    1.6630   -2.8940 n         1 MOL     -0.342367
    178 C54        -5.9700    1.2380   -4.2600 c3        1 MOL     -0.024902
    179 H86        -6.2710    0.1910   -4.2400 h1        1 MOL      0.057571
    180 H87        -6.8090    1.8510   -4.5910 h1        1 MOL      0.057571
    181 H88        -5.1360    1.3620   -4.9510 h1        1 MOL      0.057571
    182 H89        -5.8550    1.0630   -2.1390 hn        1 MOL      0.264886
    183 Ca1         1.9630   -0.8660    1.2160 Ca        1 MOL      1.685764
    184 O25         0.6120   -0.7710    3.7020 oh        1 MOL     -0.864043
    185 H90         0.3570   -1.5640    4.1830 ho        1 MOL      0.394075
    186 H91         1.2470   -0.3420    4.2710 ho        1 MOL      0.394075
    187 O26         0.8090   -3.3050    1.7240 oh        1 MOL     -0.864043
    188 H92         0.4260   -3.8120    2.4460 ho        1 MOL      0.394075
    189 H93         1.4520   -3.8960    1.3380 ho        1 MOL      0.394075
@<TRIPOS>BOND
     1    1    2 1   
     2    1    4 1   
     3    1    5 1   
     4    1    6 1   
     5    2    3 2   
     6    2    7 1   
     7    7    8 1   
     8    7   15 1   
     9    8    9 1   
    10    8   11 1   
    11    8   16 1   
    12    9   10 2   
    13    9   19 1   
    14   11   12 1   
    15   11   17 1   
    16   11   18 1   
    17   12   13 1   
    18   12   14 1   
    19   19   20 1   
    20   19   28 1   
    21   20   21 1   
    22   20   23 1   
    23   20   29 1   
    24   21   22 2   
    25   21   41 1   
    26   23   24 1   
    27   23   30 1   
    28   23   31 1   
    29   24   25 1   
    30   24   32 1   
    31   24   33 1   
    32   25   26 1   
    33   25   34 1   
    34   25   35 1   
    35   26   27 1   
    36   26   36 1   
    37   26   37 1   
    38   27   38 1   
    39   27   39 1   
    40   27   40 1   
    41   41   42 1   
    42   41   49 1   
    43   42   43 1   
    44   42   45 1   
    45   42   50 1   
    46   43   44 2   
    47   43   53 1   
    48   45   46 1   
    49   45   51 1   
    50   45   52 1   
    51   46   47 1   
    52   46   48 1   
    53   53   54 1   
    54   53   57 1   
    55   54   55 1   
    56   54   58 1   
    57   54   59 1   
    58   55   56 2   
    59   55   60 1   
    60   60   61 1   
    61   60   68 1   
    62   61   62 1   
    63   61   64 1   
    64   61   69 1   
    65   62   63 2   
    66   62   72 1   
    67   64   65 1   
    68   64   70 1   
    69   64   71 1   
    70   65   66 1   
    71   65   67 1   
    72   72   73 1   
    73   72   76 1   
    74   73   74 1   
    75   73   77 1   
    76   73   78 1   
    77   74   75 2   
    78   74   79 1   
    79   79   80 1   
    80   79   86 1   
    81   80   81 1   
    82   80   83 1   
    83   80   87 1   
    84   81   82 2   
    85   81   93 1   
    86   83   84 1   
    87   83   85 1   
    88   83   88 1   
    89   84   90 1   
    90   84   91 1   
    91   84   92 1   
    92   85   89 1   
    93   93   94 1   
    94   93  101 1   
    95   94   95 1   
    96   94   97 1   
    97   94  102 1   
    98   95   96 2   
    99   95  112 1   
   100   97   98 1   
   101   97   99 1   
   102   97  103 1   
   103   98  100 1   
   104   98  104 1   
   105   98  105 1   
   106   99  106 1   
   107   99  107 1   
   108   99  108 1   
   109  100  109 1   
   110  100  110 1   
   111  100  111 1   
   112  112  113 1   
   113  112  119 1   
   114  113  114 1   
   115  113  116 1   
   116  113  120 1   
   117  114  115 2   
   118  114  126 1   
   119  116  117 1   
   120  116  118 1   
   121  116  121 1   
   122  117  123 1   
   123  117  124 1   
   124  117  125 1   
   125  118  122 1   
   126  126  127 1   
   127  126  133 1   
   128  127  128 1   
   129  127  130 1   
   130  127  134 1   
   131  128  129 2   
   132  128  140 1   
   133  130  131 1   
   134  130  132 1   
   135  130  135 1   
   136  131  137 1   
   137  131  138 1   
   138  131  139 1   
   139  132  136 1   
   140  140  141 1   
   141  140  149 1   
   142  141  142 1   
   143  141  144 1   
   144  141  150 1   
   145  142  143 2   
   146  142  162 1   
   147  144  145 1   
   148  144  151 1   
   149  144  152 1   
   150  145  146 1   
   151  145  153 1   
   152  145  154 1   
   153  146  147 1   
   154  146  155 1   
   155  146  156 1   
   156  147  148 1   
   157  147  157 1   
   158  147  158 1   
   159  148  159 1   
   160  148  160 1   
   161  148  161 1   
   162  162  163 1   
   163  162  171 1   
   164  163  164 1   
   165  163  166 1   
   166  163  172 1   
   167  164  165 2   
   168  164  177 1   
   169  166  167 1   
   170  166  173 1   
   171  166  174 1   
   172  167  168 1   
   173  167  175 1   
   174  167  176 1   
   175  168  169 1   
   176  168  170 1   
   177  177  178 1   
   178  177  182 1   
   179  178  179 1   
   180  178  180 1   
   181  178  181 1   
   182  184  185 1   
   183  184  186 1   
   184  187  188 1   
   185  187  189 1   
@<TRIPOS>SUBSTRUCTURE
     1 MOL         1 TEMP              0 ****  ****    0 ROOT
