@<TRIPOS>MOLECULE
MOL
  172   171     1     0     0
SMALL
resp


@<TRIPOS>ATOM
      1 C1          0.6320    3.8270    5.6040 c3        1 MOL     -0.419136
      2 C2          0.0740    3.7730    4.1910 c         1 MOL      0.696461
      3 O1          0.8240    3.7600    3.1850 o         1 MOL     -0.540337
      4 H1         -0.0340    3.2870    6.2770 hc        1 MOL      0.104965
      5 H2          1.6200    3.3660    5.6240 hc        1 MOL      0.104965
      6 H3          0.7080    4.8660    5.9260 hc        1 MOL      0.104965
      7 N1         -1.2320    3.8800    4.0130 n         1 MOL     -0.587150
      8 C3         -1.9290    3.6510    2.7740 c3        1 MOL      0.204703
      9 C4         -1.9440    4.9200    1.8560 c         1 MOL      0.621865
     10 O2         -1.8900    6.0600    2.2820 o         1 MOL     -0.575774
     11 C5         -3.3300    3.0090    2.9320 c3        1 MOL     -0.412391
     12 C6         -4.0160    2.6010    1.5960 c         1 MOL      0.785018
     13 O3         -3.5890    1.6510    0.9180 o         1 MOL     -0.721591
     14 O4         -5.0670    3.2100    1.2070 o         1 MOL     -0.721591
     15 H4         -1.7660    4.0680    4.8510 hn        1 MOL      0.298466
     16 H5         -1.2540    2.9220    2.3180 h1        1 MOL      0.063956
     17 H6         -3.9030    3.7980    3.4160 hc        1 MOL      0.084884
     18 H7         -3.1970    2.1240    3.5480 hc        1 MOL      0.084884
     19 N2         -2.0970    4.6100    0.5860 n         1 MOL     -0.672554
     20 C7         -2.2900    5.5440   -0.5440 c3        1 MOL      0.357313
     21 C8         -3.2650    5.1240   -1.7170 c         1 MOL      0.461709
     22 O5         -3.3500    5.9810   -2.5790 o         1 MOL     -0.567288
     23 C9         -0.9100    5.8560   -1.0470 c3        1 MOL     -0.259046
     24 H8         -2.0260    3.6200    0.3890 hn        1 MOL      0.427818
     25 H9         -2.7050    6.4660   -0.1190 h1        1 MOL      0.003667
     26 H10        -0.4910    4.9800   -1.5520 hc        1 MOL      0.065196
     27 H11        -0.8880    6.6670   -1.7790 hc        1 MOL      0.065196
     28 H12        -0.3200    6.1470   -0.1880 hc        1 MOL      0.065196
     29 N3         -3.9270    3.9760   -1.6970 n         1 MOL     -0.356848
     30 C10        -4.7530    3.4050   -2.7910 c3        1 MOL      0.098468
     31 C11        -6.0480    2.6080   -2.4060 c         1 MOL      0.293663
     32 O6         -6.7460    2.1510   -3.2790 o         1 MOL     -0.513528
     33 C12        -3.8200    2.4810   -3.7100 c3        1 MOL     -0.110496
     34 C13        -3.2490    1.2980   -2.9520 c         1 MOL      0.710520
     35 O7         -3.9240    0.7620   -2.0550 o         1 MOL     -0.734855
     36 O8         -2.0040    1.1190   -2.8950 o         1 MOL     -0.734855
     37 H13        -3.7280    3.3620   -0.9250 hn        1 MOL      0.216224
     38 H14        -5.1120    4.2360   -3.3900 h1        1 MOL      0.075176
     39 H15        -3.1010    3.1330   -4.2150 hc        1 MOL      0.031824
     40 H16        -4.3930    2.0060   -4.5030 hc        1 MOL      0.031824
     41 N4         -6.2870    2.2190   -1.1340 n         1 MOL     -0.049217
     42 C14        -7.5280    1.4610   -0.6990 c3        1 MOL     -0.453096
     43 C15        -7.5030   -0.0500   -0.9680 c         1 MOL      0.565392
     44 O9         -8.5850   -0.6380   -0.8800 o         1 MOL     -0.600763
     45 H17        -5.6520    2.5720   -0.4370 hn        1 MOL      0.168633
     46 H18        -8.3760    1.8180   -1.2930 h1        1 MOL      0.180343
     47 H19        -7.6460    1.5600    0.3800 h1        1 MOL      0.180343
     48 N5         -6.3560   -0.6640   -1.3470 n         1 MOL     -0.164253
     49 C16        -6.3920   -2.0560   -1.8490 c3        1 MOL     -0.008682
     50 C17        -6.3400   -3.1160   -0.7310 c         1 MOL      0.418209
     51 O10        -6.4820   -4.3120   -0.9730 o         1 MOL     -0.539571
     52 C18        -5.3380   -2.3500   -2.9120 c3        1 MOL     -0.145363
     53 C19        -3.8580   -2.3760   -2.4400 c         1 MOL      0.561087
     54 N6         -2.9100   -2.5360   -3.3070 n         1 MOL     -0.565493
     55 O11        -3.5000   -2.3500   -1.2690 o         1 MOL     -0.600131
     56 H20        -5.5710   -0.0430   -1.4950 hn        1 MOL      0.179425
     57 H21        -7.3540   -2.2720   -2.3220 h1        1 MOL      0.097344
     58 H22        -5.4790   -1.7140   -3.7790 hc        1 MOL      0.056331
     59 H23        -5.5570   -3.3640   -3.2300 hc        1 MOL      0.056331
     60 H24        -3.1590   -2.5090   -4.2850 hn        1 MOL      0.304360
     61 H25        -1.9620   -2.5500   -2.9640 hn        1 MOL      0.304360
     62 N7         -6.1630   -2.7000    0.4890 n         1 MOL     -0.153779
     63 C20        -6.2680   -3.5480    1.6680 c3        1 MOL     -0.314088
     64 C21        -4.9660   -4.2610    2.1310 c         1 MOL      0.538666
     65 O12        -5.0340   -5.1690    2.9710 o         1 MOL     -0.570570
     66 H26        -5.9510   -1.7220    0.6000 hn        1 MOL      0.171444
     67 H27        -7.1200   -4.2190    1.5340 h1        1 MOL      0.130726
     68 H28        -6.5070   -2.8730    2.4880 h1        1 MOL      0.130726
     69 N8         -3.8820   -3.9190    1.4330 n         1 MOL     -0.063502
     70 C22        -2.5550   -4.4680    1.5810 c3        1 MOL     -0.545300
     71 C23        -1.4690   -3.3080    1.5390 c         1 MOL      0.910036
     72 O13        -1.7260   -2.3410    0.8500 o         1 MOL     -0.622399
     73 C24        -2.2770   -5.4540    0.4030 c3        1 MOL      0.549102
     74 C25        -2.8420   -6.8430    0.4450 c3        1 MOL     -0.414601
     75 O14        -2.5230   -4.8870   -0.8350 oh        1 MOL     -0.645776
     76 H29        -4.0210   -3.0310    0.9610 hn        1 MOL      0.249703
     77 H30        -2.3420   -5.0320    2.4940 h1        1 MOL      0.144354
     78 H31        -1.2050   -5.6590    0.4370 h1        1 MOL      0.003340
     79 H32        -3.1490   -4.1590   -0.8090 ho        1 MOL      0.399689
     80 H33        -2.6360   -7.3500   -0.4940 hc        1 MOL      0.092299
     81 H34        -2.3380   -7.4950    1.1560 hc        1 MOL      0.092299
     82 H35        -3.9040   -6.8150    0.7000 hc        1 MOL      0.092299
     83 N9         -0.3350   -3.5040    2.2660 n         1 MOL     -0.777836
     84 C26         0.8030   -2.6590    2.1230 c3        1 MOL      0.091167
     85 C27         1.5560   -3.0440    0.8470 c         1 MOL      0.452364
     86 O15         1.8730   -4.1840    0.6110 o         1 MOL     -0.572640
     87 C28         1.6320   -2.6130    3.4120 c3        1 MOL      0.303647
     88 C29         0.8420   -2.5320    4.7210 c3        1 MOL      0.149029
     89 C30         2.7030   -1.5700    3.3120 c3        1 MOL     -0.458962
     90 C31         1.7260   -2.4880    6.0160 c3        1 MOL     -0.482878
     91 H36        -0.1430   -4.3880    2.7320 hn        1 MOL      0.356606
     92 H37         0.3930   -1.6610    1.9430 h1        1 MOL      0.089136
     93 H38         2.1490   -3.5730    3.3970 hc        1 MOL     -0.054742
     94 H39         0.2740   -3.4550    4.6080 hc        1 MOL     -0.033210
     95 H40         0.0970   -1.7380    4.6910 hc        1 MOL     -0.033210
     96 H41         2.2200   -0.5930    3.2860 hc        1 MOL      0.086487
     97 H42         3.4190   -1.5160    4.1280 hc        1 MOL      0.086487
     98 H43         3.2040   -1.6900    2.3490 hc        1 MOL      0.086487
     99 H44         2.0860   -1.4630    6.1130 hc        1 MOL      0.119776
    100 H45         1.1340   -2.6510    6.9240 hc        1 MOL      0.119776
    101 H46         2.6300   -3.0900    5.9160 hc        1 MOL      0.119776
    102 N10         1.8110   -2.0060    0.0560 n         1 MOL     -0.005568
    103 C32         2.5800   -2.1210   -1.1840 c3        1 MOL      0.174481
    104 C33         4.0330   -1.6560   -0.8600 c         1 MOL      0.278750
    105 O16         4.2810   -0.9410    0.0730 o         1 MOL     -0.174082
    106 C34         1.8490   -1.2710   -2.3030 c3        1 MOL     -0.373171
    107 C35         0.4540   -1.6570   -2.7040 c         1 MOL      0.754747
    108 O17        -0.5220   -1.3950   -1.9720 o         1 MOL     -0.680744
    109 O18         0.3160   -2.2860   -3.7750 o         1 MOL     -0.680744
    110 H47         1.4390   -1.0750    0.1840 hn        1 MOL     -0.120105
    111 H48         2.6140   -3.1740   -1.4540 h1        1 MOL      0.049487
    112 H49         2.4630   -1.0620   -3.1910 hc        1 MOL      0.104971
    113 H50         1.7590   -0.2550   -1.9140 hc        1 MOL      0.104971
    114 N11         5.0780   -1.9640   -1.6870 n         1 MOL     -0.637002
    115 C36         6.4380   -1.5600   -1.4090 c3        1 MOL      0.453425
    116 C37         6.6440   -0.0560   -1.0720 c         1 MOL      0.273434
    117 O19         7.1620    0.1960    0.0230 o         1 MOL     -0.532831
    118 C38         7.5260   -2.1500   -2.4010 c3        1 MOL     -0.411180
    119 C39         8.9890   -1.8020   -2.0760 ca        1 MOL      0.216254
    120 C40         9.6570   -2.3810   -0.9840 ca        1 MOL     -0.175873
    121 C41         9.6640   -1.0420   -2.9990 ca        1 MOL     -0.175873
    122 C42        11.0380   -2.1000   -0.8020 ca        1 MOL     -0.132205
    123 C43        10.9570   -0.7160   -2.8210 ca        1 MOL     -0.132205
    124 C44        11.7020   -1.1670   -1.6730 ca        1 MOL     -0.089350
    125 H51         4.9330   -2.3310   -2.6080 hn        1 MOL      0.336962
    126 H52         6.6010   -2.0380   -0.4500 h1        1 MOL      0.045696
    127 H53         7.2070   -2.0150   -3.4360 hc        1 MOL      0.102183
    128 H54         7.4700   -3.2300   -2.2510 hc        1 MOL      0.102183
    129 H55         9.1620   -3.0350   -0.2900 ha        1 MOL      0.124235
    130 H56         9.1790   -0.6390   -3.8780 ha        1 MOL      0.124235
    131 H57        11.7040   -2.6070   -0.1260 ha        1 MOL      0.112718
    132 H58        11.4140   -0.0200   -3.5050 ha        1 MOL      0.112718
    133 H59        12.7720   -1.0270   -1.6610 ha        1 MOL      0.093296
    134 N12         6.0540    0.9340   -1.7600 n         1 MOL     -0.024732
    135 C45         6.1840    2.3380   -1.4680 c3        1 MOL      0.058738
    136 C46         5.3880    2.7500   -0.1480 c         1 MOL      0.242230
    137 O20         5.5730    3.8040    0.4220 o         1 MOL     -0.515688
    138 C47         5.6800    3.1990   -2.6250 c3        1 MOL     -0.168476
    139 C48         4.9380    2.1160   -3.4600 c3        1 MOL      0.096328
    140 C49         5.4250    0.7300   -3.0660 c3        1 MOL     -0.141971
    141 H60         7.2410    2.5790   -1.3670 h1        1 MOL      0.077695
    142 H61         5.0770    4.1010   -2.5630 hc        1 MOL      0.064506
    143 H62         6.5590    3.3240   -3.2510 hc        1 MOL      0.064506
    144 H63         3.8650    2.2820   -3.4020 hc        1 MOL      0.013229
    145 H64         5.0430    2.2420   -4.5390 hc        1 MOL      0.013229
    146 H65         4.5880    0.0340   -2.9410 h1        1 MOL      0.038004
    147 H66         6.1340    0.3060   -3.7720 h1        1 MOL      0.038004
    148 N13         4.5160    1.9390    0.3410 n         1 MOL      0.075290
    149 C50         3.9490    2.1100    1.6640 c3        1 MOL     -0.106718
    150 C51         4.7880    1.5070    2.7800 c         1 MOL      0.407762
    151 O21         4.9560    2.1590    3.8330 o         1 MOL     -0.545514
    152 C52         2.5090    1.5330    1.6030 c3        1 MOL      0.028531
    153 C53         1.6100    2.1460    0.5100 c3        1 MOL      0.068584
    154 C54         0.2700    1.4970    0.3610 c         1 MOL      0.739046
    155 O22         0.0380    0.3520    0.8070 o         1 MOL     -0.793703
    156 O23        -0.6220    2.1540   -0.1500 o         1 MOL     -0.793703
    157 H67         4.4070    1.0320   -0.0950 hn        1 MOL      0.014759
    158 H68         3.8450    3.1780    1.8600 h1        1 MOL      0.110109
    159 H69         2.0300    1.7140    2.5630 hc        1 MOL      0.025710
    160 H70         2.6740    0.4680    1.4170 hc        1 MOL      0.025710
    161 H71         2.1720    2.0060   -0.4070 hc        1 MOL     -0.008593
    162 H72         1.5150    3.2280    0.6650 hc        1 MOL     -0.008593
    163 N14         5.4480    0.3660    2.4570 n         1 MOL      0.004350
    164 C55         6.3460   -0.2920    3.4030 c3        1 MOL     -0.195460
    165 H73         5.7570   -0.8300    4.1470 h1        1 MOL      0.070107
    166 H74         6.9860   -0.9940    2.8700 h1        1 MOL      0.070107
    167 H75         6.9620    0.4570    3.9010 h1        1 MOL      0.070107
    168 H76         5.3140   -0.1040    1.5700 hn        1 MOL      0.044124
    169 Ca1        -2.1500   -0.1070   -0.5300 Ca        1 MOL      1.766399
    170 O24        -4.0540   -0.9530    1.7260 oh        1 MOL     -0.995443
    171 H77        -3.4370   -0.6470    2.3940 ho        1 MOL      0.464308
    172 H78        -4.8420   -0.4230    1.8710 ho        1 MOL      0.464308
@<TRIPOS>BOND
     1    1    2 1   
     2    1    4 1   
     3    1    5 1   
     4    1    6 1   
     5    2    3 2   
     6    2    7 1   
     7    7    8 1   
     8    7   15 1   
     9    8    9 1   
    10    8   11 1   
    11    8   16 1   
    12    9   10 2   
    13    9   19 1   
    14   11   12 1   
    15   11   17 1   
    16   11   18 1   
    17   12   13 1   
    18   12   14 1   
    19   19   20 1   
    20   19   24 1   
    21   20   21 1   
    22   20   23 1   
    23   20   25 1   
    24   21   22 2   
    25   21   29 1   
    26   23   26 1   
    27   23   27 1   
    28   23   28 1   
    29   29   30 1   
    30   29   37 1   
    31   30   31 1   
    32   30   33 1   
    33   30   38 1   
    34   31   32 2   
    35   31   41 1   
    36   33   34 1   
    37   33   39 1   
    38   33   40 1   
    39   34   35 1   
    40   34   36 1   
    41   41   42 1   
    42   41   45 1   
    43   42   43 1   
    44   42   46 1   
    45   42   47 1   
    46   43   44 2   
    47   43   48 1   
    48   48   49 1   
    49   48   56 1   
    50   49   50 1   
    51   49   52 1   
    52   49   57 1   
    53   50   51 2   
    54   50   62 1   
    55   52   53 1   
    56   52   58 1   
    57   52   59 1   
    58   53   54 1   
    59   53   55 2   
    60   54   60 1   
    61   54   61 1   
    62   62   63 1   
    63   62   66 1   
    64   63   64 1   
    65   63   67 1   
    66   63   68 1   
    67   64   65 2   
    68   64   69 1   
    69   69   70 1   
    70   69   76 1   
    71   70   71 1   
    72   70   73 1   
    73   70   77 1   
    74   71   72 2   
    75   71   83 1   
    76   73   74 1   
    77   73   75 1   
    78   73   78 1   
    79   74   80 1   
    80   74   81 1   
    81   74   82 1   
    82   75   79 1   
    83   83   84 1   
    84   83   91 1   
    85   84   85 1   
    86   84   87 1   
    87   84   92 1   
    88   85   86 2   
    89   85  102 1   
    90   87   88 1   
    91   87   89 1   
    92   87   93 1   
    93   88   90 1   
    94   88   94 1   
    95   88   95 1   
    96   89   96 1   
    97   89   97 1   
    98   89   98 1   
    99   90   99 1   
   100   90  100 1   
   101   90  101 1   
   102  102  103 1   
   103  102  110 1   
   104  103  104 1   
   105  103  106 1   
   106  103  111 1   
   107  104  105 2   
   108  104  114 1   
   109  106  107 1   
   110  106  112 1   
   111  106  113 1   
   112  107  108 1   
   113  107  109 1   
   114  114  115 1   
   115  114  125 1   
   116  115  116 1   
   117  115  118 1   
   118  115  126 1   
   119  116  117 2   
   120  116  134 1   
   121  118  119 1   
   122  118  127 1   
   123  118  128 1   
   124  119  120 ar  
   125  119  121 ar  
   126  120  122 ar  
   127  120  129 1   
   128  121  123 ar  
   129  121  130 1   
   130  122  124 ar  
   131  122  131 1   
   132  123  124 ar  
   133  123  132 1   
   134  124  133 1   
   135  134  135 1   
   136  134  140 1   
   137  135  136 1   
   138  135  138 1   
   139  135  141 1   
   140  136  137 2   
   141  136  148 1   
   142  138  139 1   
   143  138  142 1   
   144  138  143 1   
   145  139  140 1   
   146  139  144 1   
   147  139  145 1   
   148  140  146 1   
   149  140  147 1   
   150  148  149 1   
   151  148  157 1   
   152  149  150 1   
   153  149  152 1   
   154  149  158 1   
   155  150  151 2   
   156  150  163 1   
   157  152  153 1   
   158  152  159 1   
   159  152  160 1   
   160  153  154 1   
   161  153  161 1   
   162  153  162 1   
   163  154  155 1   
   164  154  156 1   
   165  163  164 1   
   166  163  168 1   
   167  164  165 1   
   168  164  166 1   
   169  164  167 1   
   170  170  171 1   
   171  170  172 1   
@<TRIPOS>SUBSTRUCTURE
     1 MOL         1 TEMP              0 ****  ****    0 ROOT
