@<TRIPOS>MOLECULE
MOL
  175   173     1     0     0
SMALL
resp


@<TRIPOS>ATOM
      1 C1          0.6130    4.6170    5.1070 c3        1 MOL     -0.389680
      2 C2         -0.0390    4.5020    3.7370 c         1 MOL      0.715624
      3 O1          0.5540    4.9680    2.7420 o         1 MOL     -0.561528
      4 H1         -0.0280    4.1490    5.8540 hc        1 MOL      0.095440
      5 H2          1.5800    4.1140    5.0930 hc        1 MOL      0.095440
      6 H3          0.7530    5.6680    5.3560 hc        1 MOL      0.095440
      7 N1         -1.2620    3.9500    3.6250 n         1 MOL     -0.607260
      8 C3         -1.9930    3.5800    2.3590 c3        1 MOL      0.060886
      9 C4         -2.1430    4.8230    1.4540 c         1 MOL      0.654824
     10 O2         -2.2940    5.9680    1.9650 o         1 MOL     -0.545294
     11 C5         -3.3400    2.9500    2.7190 c3        1 MOL     -0.198078
     12 C6         -4.1280    2.4050    1.5110 c         1 MOL      0.585381
     13 O3         -5.3660    2.6610    1.5220 o         1 MOL     -0.617674
     14 O4         -3.5030    1.8800    0.6020 o         1 MOL     -0.617674
     15 H4         -1.7230    3.5580    4.4430 hn        1 MOL      0.309400
     16 H5         -1.4480    2.7480    1.8950 h1        1 MOL      0.071166
     17 H6         -3.9940    3.6580    3.2290 hc        1 MOL      0.034193
     18 H7         -3.1640    2.1320    3.4120 hc        1 MOL      0.034193
     19 N2         -2.2280    4.5910    0.0770 n         1 MOL     -0.504841
     20 C7         -2.7250    5.5570   -0.8650 c3        1 MOL      0.296538
     21 C8         -3.8300    4.9750   -1.8680 c         1 MOL      0.424767
     22 O5         -4.2780    5.7870   -2.7150 o         1 MOL     -0.582018
     23 C9         -1.4640    6.1900   -1.4960 c3        1 MOL     -0.282987
     24 H8         -1.8130    3.7600   -0.3220 hn        1 MOL      0.235435
     25 H9         -3.2520    6.3460   -0.3280 h1        1 MOL      0.002393
     26 H10        -0.9470    5.4500   -2.1040 hc        1 MOL      0.069625
     27 H11        -1.6490    6.9720   -2.2240 hc        1 MOL      0.069625
     28 H12        -0.8580    6.5640   -0.6620 hc        1 MOL      0.069625
     29 N3         -4.2110    3.6970   -1.8320 n         1 MOL     -0.234664
     30 C10        -5.1250    3.0140   -2.8170 c3        1 MOL     -0.005931
     31 C11        -6.2540    2.1560   -2.2900 c         1 MOL      0.292415
     32 O6         -7.1600    1.7520   -3.0850 o         1 MOL     -0.542744
     33 C12        -4.1200    2.1310   -3.6940 c3        1 MOL     -0.104283
     34 C13        -3.3890    1.0750   -2.8740 c         1 MOL      0.665781
     35 O7         -3.9940    0.4870   -1.9290 o         1 MOL     -0.694610
     36 O8         -2.1820    0.8280   -3.1120 o         1 MOL     -0.694610
     37 H13        -3.9550    3.1130   -1.0550 hn        1 MOL      0.197809
     38 H14        -5.5020    3.8000   -3.4700 h1        1 MOL      0.108680
     39 H15        -3.4090    2.8430   -4.1060 hc        1 MOL      0.032502
     40 H16        -4.6570    1.7180   -4.5430 hc        1 MOL      0.032502
     41 N4         -6.3340    1.9220   -1.0190 n         1 MOL     -0.019873
     42 C14        -7.4060    1.1480   -0.3190 c3        1 MOL     -0.148944
     43 C15        -7.5600   -0.2620   -0.9490 c         1 MOL      0.398489
     44 O9         -8.6320   -0.8370   -1.0400 o         1 MOL     -0.585337
     45 H17        -5.5840    2.2160   -0.4040 hn        1 MOL      0.050978
     46 H18        -8.3350    1.7110   -0.4250 h1        1 MOL      0.094828
     47 H19        -7.1130    1.0560    0.7310 h1        1 MOL      0.094828
     48 N5         -6.5100   -0.9120   -1.3310 n         1 MOL     -0.063307
     49 C16        -6.5290   -2.2240   -1.8600 c3        1 MOL      0.001995
     50 C17        -6.5760   -3.3590   -0.7930 c         1 MOL      0.438820
     51 O10        -6.9560   -4.5170   -1.1660 o         1 MOL     -0.550009
     52 C18        -5.2550   -2.5420   -2.7710 c3        1 MOL     -0.256609
     53 C19        -3.8480   -2.5460   -2.2280 c         1 MOL      0.827555
     54 N6         -2.9260   -2.9220   -3.0890 n         1 MOL     -0.693220
     55 O11        -3.5500   -2.1060   -1.0680 o         1 MOL     -0.744279
     56 H20        -5.6190   -0.4470   -1.3070 hn        1 MOL      0.196434
     57 H21        -7.3940   -2.4640   -2.4780 h1        1 MOL      0.111884
     58 H22        -5.1660   -1.8560   -3.6060 hc        1 MOL      0.061274
     59 H23        -5.4190   -3.5680   -3.1300 hc        1 MOL      0.061274
     60 H24        -3.1330   -3.0340   -4.0640 hn        1 MOL      0.336845
     61 H25        -1.9510   -2.7380   -2.9340 hn        1 MOL      0.336845
     62 N7         -6.3440   -3.0190    0.4580 n         1 MOL     -0.291158
     63 C20        -6.3030   -3.9640    1.5870 c3        1 MOL     -0.037069
     64 C21        -4.8440   -4.1920    2.1300 c         1 MOL      0.403490
     65 O12        -4.6580   -4.6890    3.2280 o         1 MOL     -0.562937
     66 H26        -6.0710   -2.0790    0.6820 hn        1 MOL      0.230016
     67 H27        -6.8120   -4.8970    1.3430 h1        1 MOL      0.084947
     68 H28        -6.9210   -3.5040    2.3580 h1        1 MOL      0.084947
     69 N8         -3.7830   -3.8400    1.3960 n         1 MOL     -0.078909
     70 C22        -2.4560   -4.3660    1.6340 c3        1 MOL     -0.250381
     71 C23        -1.3320   -3.2930    1.6810 c         1 MOL      0.629392
     72 O13        -1.4500   -2.3130    0.9550 o         1 MOL     -0.561818
     73 C24        -1.9780   -5.4010    0.6350 c3        1 MOL      0.590076
     74 C25        -2.8660   -6.6130    0.7310 c3        1 MOL     -0.323386
     75 O14        -2.0720   -4.9060   -0.6880 oh        1 MOL     -0.670926
     76 H29        -3.9850   -3.1920    0.6530 hn        1 MOL      0.139984
     77 H30        -2.4900   -4.9350    2.5560 h1        1 MOL      0.101712
     78 H31        -0.9580   -5.7150    0.8670 h1        1 MOL     -0.018136
     79 H32        -2.5790   -4.0910   -0.7230 ho        1 MOL      0.341026
     80 H33        -3.9420   -6.4510    0.6020 hc        1 MOL      0.064002
     81 H34        -2.5810   -7.3100   -0.0620 hc        1 MOL      0.064002
     82 H35        -2.5390   -7.1460    1.6240 hc        1 MOL      0.064002
     83 N9         -0.2530   -3.4080    2.5010 n         1 MOL     -0.661358
     84 C26         0.9220   -2.5140    2.3790 c3        1 MOL     -0.065244
     85 C27         1.7480   -2.8370    1.1770 c         1 MOL      0.758092
     86 O15         2.3650   -3.9130    1.1920 o         1 MOL     -0.657059
     87 C28         1.8200   -2.4920    3.6350 c3        1 MOL      0.280803
     88 C29         1.0370   -2.3350    4.9640 c3        1 MOL      0.177631
     89 C30         2.7990   -1.3550    3.4510 c3        1 MOL     -0.298976
     90 C31         1.9230   -1.8790    6.1000 c3        1 MOL     -0.162811
     91 H36        -0.3510   -4.1180    3.2190 hn        1 MOL      0.306863
     92 H37         0.6390   -1.4640    2.2690 h1        1 MOL      0.063091
     93 H38         2.4500   -3.3560    3.8280 hc        1 MOL     -0.034480
     94 H39         0.6550   -3.3110    5.2510 hc        1 MOL     -0.051572
     95 H40         0.2780   -1.5530    4.9280 hc        1 MOL     -0.051572
     96 H41         2.3080   -0.4100    3.7110 hc        1 MOL      0.045375
     97 H42         3.5380   -1.4250    4.2560 hc        1 MOL      0.045375
     98 H43         3.3750   -1.3280    2.5260 hc        1 MOL      0.045375
     99 H44         2.8090   -2.5130    6.0400 hc        1 MOL      0.027998
    100 H45         2.2430   -0.8420    6.0720 hc        1 MOL      0.027998
    101 H46         1.4360   -2.1270    7.0350 hc        1 MOL      0.027998
    102 N10         1.8680   -1.9090    0.2470 n         1 MOL     -0.277187
    103 C32         2.6390   -2.0720   -0.9250 c3        1 MOL     -0.015942
    104 C33         4.0720   -1.5730   -0.5930 c         1 MOL      0.451406
    105 O16         4.2870   -0.6330    0.1770 o         1 MOL     -0.327809
    106 C34         1.9590   -1.4190   -2.1870 c3        1 MOL     -0.209141
    107 C35         0.4860   -1.7590   -2.4580 c         1 MOL      0.704547
    108 O17         0.2600   -2.1960   -3.6000 o         1 MOL     -0.658333
    109 O18        -0.4710   -1.3990   -1.7650 o         1 MOL     -0.658333
    110 H47         1.4150   -1.0110    0.3610 hn        1 MOL      0.040867
    111 H48         2.8520   -3.1160   -1.1580 h1        1 MOL      0.068118
    112 H49         2.5120   -1.7460   -3.0700 hc        1 MOL      0.062030
    113 H50         2.1180   -0.3460   -2.1160 hc        1 MOL      0.062030
    114 N11         5.1130   -2.1110   -1.2850 n         1 MOL     -0.600583
    115 C36         6.4860   -1.7140   -1.0560 c3        1 MOL      0.379653
    116 C37         6.7490   -0.1830   -1.1560 c         1 MOL      0.333375
    117 O19         7.4480    0.3560   -0.2880 o         1 MOL     -0.467838
    118 C38         7.4150   -2.5440   -1.9610 c3        1 MOL     -0.224164
    119 C39         8.9230   -2.3340   -1.7930 ca        1 MOL      0.144243
    120 C40         9.6000   -1.8000   -2.8870 ca        1 MOL     -0.241401
    121 C41         9.6000   -2.4790   -0.5380 ca        1 MOL     -0.241401
    122 C42        10.9190   -1.3460   -2.7080 ca        1 MOL     -0.049337
    123 C43        10.9420   -2.0380   -0.4140 ca        1 MOL     -0.049337
    124 C44        11.6840   -1.4770   -1.4860 ca        1 MOL     -0.169459
    125 H51         4.9400   -3.0360   -1.6620 hn        1 MOL      0.316968
    126 H52         6.7850   -1.9010   -0.0250 h1        1 MOL      0.025751
    127 H53         7.1550   -2.3920   -3.0110 hc        1 MOL      0.056848
    128 H54         7.1690   -3.5610   -1.6480 hc        1 MOL      0.056848
    129 H55         9.0830   -1.8120   -3.8320 ha        1 MOL      0.146008
    130 H56         9.1030   -2.8050    0.3540 ha        1 MOL      0.146008
    131 H57        11.4030   -1.0540   -3.6270 ha        1 MOL      0.092136
    132 H58        11.3680   -1.9960    0.5800 ha        1 MOL      0.092136
    133 H59        12.7080   -1.1400   -1.4500 ha        1 MOL      0.127563
    134 N12         6.0700    0.6210   -2.0080 n         1 MOL     -0.023789
    135 C45         6.2360    2.0700   -1.9910 c3        1 MOL     -0.061943
    136 C46         5.6550    2.7650   -0.7420 c         1 MOL      0.277180
    137 O20         6.0450    3.9140   -0.3730 o         1 MOL     -0.525659
    138 C47         5.4960    2.5950   -3.3060 c3        1 MOL      0.052272
    139 C48         5.7530    1.4510   -4.2910 c3        1 MOL     -0.096586
    140 C49         5.3820    0.2720   -3.2870 c3        1 MOL     -0.125663
    141 H60         7.3190    2.1740   -2.0080 h1        1 MOL      0.081705
    142 H61         4.4390    2.7310   -3.0960 hc        1 MOL      0.031293
    143 H62         5.8990    3.5280   -3.6800 hc        1 MOL      0.031293
    144 H63         5.0470    1.4800   -5.1180 hc        1 MOL      0.045596
    145 H64         6.7820    1.3640   -4.6520 hc        1 MOL      0.045596
    146 H65         4.3120    0.3170   -3.0610 h1        1 MOL      0.079320
    147 H66         5.5360   -0.7400   -3.6630 h1        1 MOL      0.079320
    148 N13         4.7140    2.1630   -0.0700 n         1 MOL     -0.044630
    149 C50         4.1420    2.6560    1.1750 c3        1 MOL     -0.132185
    150 C51         5.0630    2.2570    2.3820 c         1 MOL      0.437350
    151 O21         5.0500    2.8800    3.4790 o         1 MOL     -0.555401
    152 C52         2.7670    2.0840    1.2460 c3        1 MOL      0.145324
    153 C53         1.8900    2.1610    0.0360 c3        1 MOL     -0.204456
    154 C54         0.5320    1.5330    0.2040 c         1 MOL      0.738589
    155 O22        -0.5100    1.9700   -0.2990 o         1 MOL     -0.713233
    156 O23         0.4960    0.4430    0.7740 o         1 MOL     -0.713233
    157 H67         4.4140    1.2530   -0.3820 hn        1 MOL      0.115746
    158 H68         4.0740    3.7450    1.1030 h1        1 MOL      0.121156
    159 H69         2.2690    2.6140    2.0530 hc        1 MOL     -0.003457
    160 H70         2.8800    1.0300    1.4900 hc        1 MOL     -0.003457
    161 H71         2.3410    1.5330   -0.7280 hc        1 MOL      0.064208
    162 H72         1.7110    3.1700   -0.3450 hc        1 MOL      0.064208
    163 N14         5.9070    1.2160    2.1750 n         1 MOL     -0.013872
    164 C55         6.9900    0.8380    3.0540 c3        1 MOL     -0.209838
    165 H73         6.6280    0.1150    3.7850 h1        1 MOL      0.079619
    166 H74         7.7940    0.3900    2.4690 h1        1 MOL      0.079619
    167 H75         7.3640    1.7200    3.5720 h1        1 MOL      0.079619
    168 H76         5.8070    0.7830    1.2670 hn        1 MOL      0.035028
    169 Ca1        -2.0230   -0.1240   -0.3240 Ca        1 MOL      1.766744
    170 O24        -3.9780   -0.8820    1.4990 oh        1 MOL     -0.801672
    171 H77        -4.8120   -0.5410    1.8120 ho        1 MOL      0.405253
    172 H78        -3.3370   -0.5990    2.1570 ho        1 MOL      0.405253
    173 O25        -1.5120    0.2760    2.7470 oh        1 MOL     -0.801672
    174 H79        -1.3820    0.4480    3.6820 ho        1 MOL      0.405253
    175 H80        -0.6360    0.3120    2.3640 ho        1 MOL      0.405253
@<TRIPOS>BOND
     1    1    2 1   
     2    1    4 1   
     3    1    5 1   
     4    1    6 1   
     5    2    3 2   
     6    2    7 1   
     7    7    8 1   
     8    7   15 1   
     9    8    9 1   
    10    8   11 1   
    11    8   16 1   
    12    9   10 2   
    13    9   19 1   
    14   11   12 1   
    15   11   17 1   
    16   11   18 1   
    17   12   13 1   
    18   12   14 1   
    19   19   20 1   
    20   19   24 1   
    21   20   21 1   
    22   20   23 1   
    23   20   25 1   
    24   21   22 2   
    25   21   29 1   
    26   23   26 1   
    27   23   27 1   
    28   23   28 1   
    29   29   30 1   
    30   29   37 1   
    31   30   31 1   
    32   30   33 1   
    33   30   38 1   
    34   31   32 2   
    35   31   41 1   
    36   33   34 1   
    37   33   39 1   
    38   33   40 1   
    39   34   35 1   
    40   34   36 1   
    41   41   42 1   
    42   41   45 1   
    43   42   43 1   
    44   42   46 1   
    45   42   47 1   
    46   43   44 2   
    47   43   48 1   
    48   48   49 1   
    49   48   56 1   
    50   49   50 1   
    51   49   52 1   
    52   49   57 1   
    53   50   51 2   
    54   50   62 1   
    55   52   53 1   
    56   52   58 1   
    57   52   59 1   
    58   53   54 1   
    59   53   55 2   
    60   54   60 1   
    61   54   61 1   
    62   62   63 1   
    63   62   66 1   
    64   63   64 1   
    65   63   67 1   
    66   63   68 1   
    67   64   65 2   
    68   64   69 1   
    69   69   70 1   
    70   69   76 1   
    71   70   71 1   
    72   70   73 1   
    73   70   77 1   
    74   71   72 2   
    75   71   83 1   
    76   73   74 1   
    77   73   75 1   
    78   73   78 1   
    79   74   80 1   
    80   74   81 1   
    81   74   82 1   
    82   75   79 1   
    83   83   84 1   
    84   83   91 1   
    85   84   85 1   
    86   84   87 1   
    87   84   92 1   
    88   85   86 2   
    89   85  102 1   
    90   87   88 1   
    91   87   89 1   
    92   87   93 1   
    93   88   90 1   
    94   88   94 1   
    95   88   95 1   
    96   89   96 1   
    97   89   97 1   
    98   89   98 1   
    99   90   99 1   
   100   90  100 1   
   101   90  101 1   
   102  102  103 1   
   103  102  110 1   
   104  103  104 1   
   105  103  106 1   
   106  103  111 1   
   107  104  105 2   
   108  104  114 1   
   109  106  107 1   
   110  106  112 1   
   111  106  113 1   
   112  107  108 1   
   113  107  109 1   
   114  114  115 1   
   115  114  125 1   
   116  115  116 1   
   117  115  118 1   
   118  115  126 1   
   119  116  117 2   
   120  116  134 1   
   121  118  119 1   
   122  118  127 1   
   123  118  128 1   
   124  119  120 ar  
   125  119  121 ar  
   126  120  122 ar  
   127  120  129 1   
   128  121  123 ar  
   129  121  130 1   
   130  122  124 ar  
   131  122  131 1   
   132  123  124 ar  
   133  123  132 1   
   134  124  133 1   
   135  134  135 1   
   136  134  140 1   
   137  135  136 1   
   138  135  138 1   
   139  135  141 1   
   140  136  137 2   
   141  136  148 1   
   142  138  139 1   
   143  138  142 1   
   144  138  143 1   
   145  139  140 1   
   146  139  144 1   
   147  139  145 1   
   148  140  146 1   
   149  140  147 1   
   150  148  149 1   
   151  148  157 1   
   152  149  150 1   
   153  149  152 1   
   154  149  158 1   
   155  150  151 2   
   156  150  163 1   
   157  152  153 1   
   158  152  159 1   
   159  152  160 1   
   160  153  154 1   
   161  153  161 1   
   162  153  162 1   
   163  154  155 1   
   164  154  156 1   
   165  163  164 1   
   166  163  168 1   
   167  164  165 1   
   168  164  166 1   
   169  164  167 1   
   170  170  171 1   
   171  170  172 1   
   172  173  174 1   
   173  173  175 1   
@<TRIPOS>SUBSTRUCTURE
     1 MOL         1 TEMP              0 ****  ****    0 ROOT
