@<TRIPOS>MOLECULE
MOL
  175   173     1     0     0
SMALL
resp


@<TRIPOS>ATOM
      1 C1          0.4080    3.6610    5.7430 c3        1 MOL     -0.420340
      2 C2         -0.0220    3.7610    4.3150 c         1 MOL      0.728004
      3 O1          0.7890    3.9320    3.4320 o         1 MOL     -0.543362
      4 H1          0.4390    4.6570    6.1830 hc        1 MOL      0.102632
      5 H2         -0.3000    3.0420    6.2940 hc        1 MOL      0.102632
      6 H3          1.4000    3.2110    5.7920 hc        1 MOL      0.102632
      7 N1         -1.3400    3.5780    4.0360 n         1 MOL     -0.627378
      8 C3         -1.9180    3.4110    2.7010 c3        1 MOL      0.085493
      9 C4         -2.0070    4.6990    1.8200 c         1 MOL      0.644571
     10 O2         -2.0070    5.7890    2.3350 o         1 MOL     -0.567172
     11 C5         -3.3780    2.8750    2.9850 c3        1 MOL     -0.205461
     12 C6         -4.1730    2.6980    1.6710 c         1 MOL      0.625569
     13 O3         -3.7120    2.0320    0.7420 o         1 MOL     -0.638766
     14 O4         -5.1550    3.4490    1.5150 o         1 MOL     -0.638766
     15 H4         -1.9600    3.4060    4.8120 hn        1 MOL      0.315260
     16 H5         -1.4330    2.5910    2.1700 h1        1 MOL      0.095165
     17 H6         -3.9530    3.5200    3.6580 hc        1 MOL      0.027060
     18 H7         -3.2980    1.8940    3.4470 hc        1 MOL      0.027060
     19 N2         -1.9500    4.5300    0.4740 n         1 MOL     -0.510935
     20 C7         -2.1790    5.5940   -0.4820 c3        1 MOL      0.302232
     21 C8         -3.0720    5.1170   -1.6150 c         1 MOL      0.539643
     22 O5         -3.2450    5.8930   -2.5390 o         1 MOL     -0.613874
     23 C9         -0.7830    6.0810   -0.9890 c3        1 MOL     -0.283681
     24 H8         -1.5450    3.6500    0.1760 hn        1 MOL      0.284810
     25 H9         -2.6930    6.4470   -0.0500 h1        1 MOL      0.015885
     26 H10        -0.8680    6.9550   -1.6420 hc        1 MOL      0.063797
     27 H11        -0.1510    6.3210   -0.1340 hc        1 MOL      0.063797
     28 H12        -0.2580    5.3070   -1.5470 hc        1 MOL      0.063797
     29 N3         -3.7920    4.0000   -1.5680 n         1 MOL     -0.365750
     30 C10        -4.7320    3.6050   -2.6370 c3        1 MOL      0.036636
     31 C11        -5.9430    2.7150   -2.2810 c         1 MOL      0.423101
     32 O6         -6.8050    2.5510   -3.1640 o         1 MOL     -0.562327
     33 C12        -3.8550    2.9820   -3.7910 c3        1 MOL     -0.066623
     34 C13        -3.0600    1.7650   -3.4260 c         1 MOL      0.660981
     35 O7         -2.1890    1.3030   -4.2050 o         1 MOL     -0.686965
     36 O8         -3.2700    1.1390   -2.3060 o         1 MOL     -0.686965
     37 H13        -3.6680    3.4420   -0.7380 hn        1 MOL      0.166249
     38 H14        -5.1310    4.4910   -3.1360 h1        1 MOL      0.080068
     39 H15        -3.1370    3.7420   -4.1140 hc        1 MOL      0.018963
     40 H16        -4.5620    2.8020   -4.6040 hc        1 MOL      0.018963
     41 N4         -6.1480    2.1890   -1.0590 n         1 MOL     -0.110983
     42 C14        -7.3560    1.4940   -0.5690 c3        1 MOL     -0.256342
     43 C15        -7.3840    0.0030   -0.8200 c         1 MOL      0.589663
     44 O9         -8.2930   -0.7400   -0.4680 o         1 MOL     -0.648681
     45 H17        -5.4080    2.3170   -0.3890 hn        1 MOL      0.121540
     46 H18        -8.2600    1.9520   -0.9440 h1        1 MOL      0.121148
     47 H19        -7.3000    1.6200    0.5150 h1        1 MOL      0.121148
     48 N5         -6.3550   -0.5770   -1.3950 n         1 MOL     -0.229645
     49 C16        -6.2510   -1.9400   -1.9550 c3        1 MOL      0.054045
     50 C17        -6.2190   -3.1530   -1.0400 c         1 MOL      0.393985
     51 O10        -6.2520   -4.3580   -1.4960 o         1 MOL     -0.543502
     52 C18        -5.1670   -1.9610   -3.0750 c3        1 MOL     -0.193128
     53 C19        -3.7360   -1.9910   -2.5300 c         1 MOL      0.600518
     54 N6         -2.7650   -2.0960   -3.4080 n         1 MOL     -0.710083
     55 O11        -3.5260   -1.9460   -1.3430 o         1 MOL     -0.480080
     56 H20        -5.6730    0.1050   -1.7110 hn        1 MOL      0.132023
     57 H21        -7.1440   -2.1540   -2.5590 h1        1 MOL      0.076293
     58 H22        -5.3480   -1.0320   -3.6180 hc        1 MOL      0.065879
     59 H23        -5.3480   -2.7980   -3.7390 hc        1 MOL      0.065879
     60 H24        -2.9800   -1.9730   -4.3850 hn        1 MOL      0.366459
     61 H25        -1.8280   -2.1220   -3.0380 hn        1 MOL      0.366459
     62 N7         -6.1990   -2.9630    0.2480 n         1 MOL     -0.104060
     63 C20        -6.2450   -4.0000    1.3420 c3        1 MOL     -0.364075
     64 C21        -4.9440   -4.7140    1.7190 c         1 MOL      0.603027
     65 O12        -4.8920   -5.6750    2.4640 o         1 MOL     -0.579178
     66 H26        -6.4240   -2.0460    0.6060 hn        1 MOL      0.235003
     67 H27        -6.9360   -4.7880    1.0400 h1        1 MOL      0.135146
     68 H28        -6.5360   -3.4940    2.2700 h1        1 MOL      0.135146
     69 N8         -3.8800   -4.2290    1.1060 n         1 MOL     -0.211511
     70 C22        -2.4750   -4.7990    1.1670 c3        1 MOL     -0.514564
     71 C23        -1.4280   -3.6280    1.2870 c         1 MOL      0.811498
     72 O13        -1.5660   -2.6210    0.6120 o         1 MOL     -0.522079
     73 C24        -2.1760   -5.6280   -0.1200 c3        1 MOL      0.603610
     74 C25        -2.9300   -6.9440   -0.2400 c3        1 MOL     -0.589134
     75 O14        -2.3640   -4.8460   -1.2810 oh        1 MOL     -0.578577
     76 H29        -4.0780   -3.4460    0.5120 hn        1 MOL      0.162253
     77 H30        -2.4720   -5.3900    2.0890 h1        1 MOL      0.183293
     78 H31        -1.1150   -5.8510   -0.2350 h1        1 MOL     -0.028321
     79 H32        -2.0880   -3.9330   -1.1240 ho        1 MOL      0.326906
     80 H33        -2.8560   -7.4560    0.7220 hc        1 MOL      0.154311
     81 H34        -3.9860   -6.7610   -0.4220 hc        1 MOL      0.154311
     82 H35        -2.6870   -7.6200   -1.0520 hc        1 MOL      0.154311
     83 N9         -0.2990   -3.8260    2.0780 n         1 MOL     -0.781232
     84 C26         0.8230   -2.8530    2.0090 c3        1 MOL      0.079609
     85 C27         1.5510   -3.0570    0.6270 c         1 MOL      0.543503
     86 O15         1.8520   -4.2050    0.2630 o         1 MOL     -0.585251
     87 C28         1.7280   -3.0930    3.2230 c3        1 MOL      0.173177
     88 C29         0.8890   -3.3910    4.5160 c3        1 MOL      0.144321
     89 C30         2.6400   -1.8370    3.3610 c3        1 MOL     -0.286447
     90 C31         1.6610   -3.2110    5.8260 c3        1 MOL     -0.404736
     91 H36        -0.0860   -4.7470    2.4380 hn        1 MOL      0.358119
     92 H37         0.4310   -1.8370    2.0600 h1        1 MOL      0.064935
     93 H38         2.3410   -3.9720    3.0340 hc        1 MOL     -0.028092
     94 H39         0.4250   -4.3680    4.3750 hc        1 MOL     -0.015678
     95 H40         0.0710   -2.6720    4.5560 hc        1 MOL     -0.015678
     96 H41         3.4170   -1.9450    4.1160 hc        1 MOL      0.064940
     97 H42         3.0860   -1.6280    2.3920 hc        1 MOL      0.064940
     98 H43         2.0660   -0.9690    3.6950 hc        1 MOL      0.064940
     99 H44         2.6370   -3.6960    5.8170 hc        1 MOL      0.094750
    100 H45         1.7830   -2.1600    6.0560 hc        1 MOL      0.094750
    101 H46         0.9700   -3.5310    6.6090 hc        1 MOL      0.094750
    102 N10         1.7630   -1.9630   -0.1040 n         1 MOL     -0.125679
    103 C32         2.5800   -1.8520   -1.3370 c3        1 MOL      0.011824
    104 C33         4.0220   -1.4580   -0.9260 c         1 MOL      0.480781
    105 O16         4.3310   -1.1140    0.1880 o         1 MOL     -0.421523
    106 C34         1.8120   -0.9200   -2.3110 c3        1 MOL     -0.294301
    107 C35         0.3290   -1.2340   -2.5810 c         1 MOL      0.810514
    108 O17        -0.5960   -0.7960   -1.8340 o         1 MOL     -0.687973
    109 O18         0.0550   -2.0100   -3.5400 o         1 MOL     -0.687973
    110 H47         1.4590   -1.1090    0.3420 hn        1 MOL     -0.097572
    111 H48         2.6540   -2.8390   -1.8020 h1        1 MOL      0.083615
    112 H49         2.2650   -0.9130   -3.3080 hc        1 MOL      0.078427
    113 H50         1.8330    0.1300   -2.0240 hc        1 MOL      0.078427
    114 N11         4.8590   -1.5170   -1.8930 n         1 MOL     -0.583630
    115 C36         6.2660   -1.2540   -1.6000 c3        1 MOL      0.456267
    116 C37         6.5960    0.1540   -1.0360 c         1 MOL      0.176574
    117 O19         7.1100    0.1890    0.1060 o         1 MOL     -0.482811
    118 C38         7.1190   -1.7440   -2.7500 c3        1 MOL     -0.295218
    119 C39         8.6160   -1.8630   -2.4750 ca        1 MOL      0.210979
    120 C40         9.1390   -3.0040   -1.8200 ca        1 MOL     -0.250734
    121 C41         9.4880   -0.8700   -2.9910 ca        1 MOL     -0.250734
    122 C42        10.4920   -2.9920   -1.4590 ca        1 MOL     -0.070308
    123 C43        10.8350   -0.8650   -2.5940 ca        1 MOL     -0.070308
    124 C44        11.3160   -1.9400   -1.8140 ca        1 MOL     -0.127158
    125 H51         4.6070   -1.7040   -2.8520 hn        1 MOL      0.321638
    126 H52         6.4820   -1.9230   -0.7720 h1        1 MOL      0.029013
    127 H53         7.0400   -1.1160   -3.6410 hc        1 MOL      0.072817
    128 H54         6.7650   -2.7230   -3.0590 hc        1 MOL      0.072817
    129 H55         8.5170   -3.8630   -1.6580 ha        1 MOL      0.147821
    130 H56         9.0870   -0.0330   -3.5470 ha        1 MOL      0.147821
    131 H57        10.8650   -3.8230   -0.8910 ha        1 MOL      0.106891
    132 H58        11.4720   -0.0300   -2.8420 ha        1 MOL      0.106891
    133 H59        12.3780   -1.8730   -1.6050 ha        1 MOL      0.093970
    134 N12         6.2520    1.2710   -1.6560 n         1 MOL     -0.005453
    135 C45         6.4240    2.6030   -1.0170 c3        1 MOL      0.017721
    136 C46         5.6830    2.8230    0.2680 c         1 MOL      0.349611
    137 O20         6.0690    3.7460    0.9970 o         1 MOL     -0.514790
    138 C47         6.0960    3.6860   -2.0500 c3        1 MOL     -0.085284
    139 C48         6.1580    2.9490   -3.4260 c3        1 MOL      0.055213
    140 C49         5.9300    1.4700   -3.0250 c3        1 MOL      0.021982
    141 H60         7.4650    2.7540   -0.7340 h1        1 MOL      0.068571
    142 H61         5.0580    3.9710   -1.8700 hc        1 MOL      0.053995
    143 H62         6.7430    4.5690   -2.0020 hc        1 MOL      0.053995
    144 H63         5.4780    3.4330   -4.1320 hc        1 MOL      0.001924
    145 H64         7.1400    3.0250   -3.9000 hc        1 MOL      0.001924
    146 H65         4.9030    1.1570   -3.1920 h1        1 MOL     -0.000722
    147 H66         6.5300    0.8410   -3.6700 h1        1 MOL     -0.000722
    148 N13         4.7110    1.9730    0.5830 n         1 MOL     -0.163385
    149 C50         4.0040    2.0290    1.8790 c3        1 MOL     -0.077350
    150 C51         4.7260    1.2760    3.0120 c         1 MOL      0.364900
    151 O21         4.6490    1.5990    4.1840 o         1 MOL     -0.547493
    152 C52         2.6060    1.3840    1.8680 c3        1 MOL     -0.043796
    153 C53         1.7740    2.0930    0.8010 c3        1 MOL     -0.125990
    154 C54         0.3980    1.4650    0.6450 c         1 MOL      0.696987
    155 O22        -0.5080    2.0460   -0.0130 o         1 MOL     -0.711039
    156 O23         0.2120    0.3190    1.1030 o         1 MOL     -0.711039
    157 H67         4.4270    1.3150   -0.1310 hn        1 MOL      0.179146
    158 H68         3.8980    3.0640    2.1960 h1        1 MOL      0.129423
    159 H69         1.9760    1.2790    2.7500 hc        1 MOL      0.085273
    160 H70         2.7320    0.3580    1.5200 hc        1 MOL      0.085273
    161 H71         2.2660    1.9080   -0.1530 hc        1 MOL      0.052006
    162 H72         1.6400    3.1380    1.0730 hc        1 MOL      0.052006
    163 N14         5.3680    0.1510    2.6400 n         1 MOL      0.072173
    164 C55         6.1570   -0.5210    3.6400 c3        1 MOL     -0.139988
    165 H73         6.1570    0.0670    4.5580 h1        1 MOL      0.047965
    166 H74         5.7310   -1.5050    3.8390 h1        1 MOL      0.047965
    167 H75         7.1800   -0.6340    3.2800 h1        1 MOL      0.047965
    168 H76         5.4710   -0.0690    1.6630 hn        1 MOL      0.060899
    169 Ca1        -2.2050   -0.0190   -0.1160 Ca        1 MOL      1.647513
    170 O24        -1.9700   -0.0720    2.6710 oh        1 MOL     -0.936537
    171 H77        -1.9770    0.0120    3.6200 ho        1 MOL      0.448090
    172 H78        -1.0470   -0.0350    2.4310 ho        1 MOL      0.448090
    173 O25        -4.2810   -0.8420    1.3650 oh        1 MOL     -0.936537
    174 H79        -5.1090   -0.5840    1.7780 ho        1 MOL      0.448090
    175 H80        -3.6290   -0.7430    2.0640 ho        1 MOL      0.448090
@<TRIPOS>BOND
     1    1    2 1   
     2    1    4 1   
     3    1    5 1   
     4    1    6 1   
     5    2    3 2   
     6    2    7 1   
     7    7    8 1   
     8    7   15 1   
     9    8    9 1   
    10    8   11 1   
    11    8   16 1   
    12    9   10 2   
    13    9   19 1   
    14   11   12 1   
    15   11   17 1   
    16   11   18 1   
    17   12   13 1   
    18   12   14 1   
    19   19   20 1   
    20   19   24 1   
    21   20   21 1   
    22   20   23 1   
    23   20   25 1   
    24   21   22 2   
    25   21   29 1   
    26   23   26 1   
    27   23   27 1   
    28   23   28 1   
    29   29   30 1   
    30   29   37 1   
    31   30   31 1   
    32   30   33 1   
    33   30   38 1   
    34   31   32 2   
    35   31   41 1   
    36   33   34 1   
    37   33   39 1   
    38   33   40 1   
    39   34   35 1   
    40   34   36 1   
    41   41   42 1   
    42   41   45 1   
    43   42   43 1   
    44   42   46 1   
    45   42   47 1   
    46   43   44 2   
    47   43   48 1   
    48   48   49 1   
    49   48   56 1   
    50   49   50 1   
    51   49   52 1   
    52   49   57 1   
    53   50   51 2   
    54   50   62 1   
    55   52   53 1   
    56   52   58 1   
    57   52   59 1   
    58   53   54 1   
    59   53   55 2   
    60   54   60 1   
    61   54   61 1   
    62   62   63 1   
    63   62   66 1   
    64   63   64 1   
    65   63   67 1   
    66   63   68 1   
    67   64   65 2   
    68   64   69 1   
    69   69   70 1   
    70   69   76 1   
    71   70   71 1   
    72   70   73 1   
    73   70   77 1   
    74   71   72 2   
    75   71   83 1   
    76   73   74 1   
    77   73   75 1   
    78   73   78 1   
    79   74   80 1   
    80   74   81 1   
    81   74   82 1   
    82   75   79 1   
    83   83   84 1   
    84   83   91 1   
    85   84   85 1   
    86   84   87 1   
    87   84   92 1   
    88   85   86 2   
    89   85  102 1   
    90   87   88 1   
    91   87   89 1   
    92   87   93 1   
    93   88   90 1   
    94   88   94 1   
    95   88   95 1   
    96   89   96 1   
    97   89   97 1   
    98   89   98 1   
    99   90   99 1   
   100   90  100 1   
   101   90  101 1   
   102  102  103 1   
   103  102  110 1   
   104  103  104 1   
   105  103  106 1   
   106  103  111 1   
   107  104  105 2   
   108  104  114 1   
   109  106  107 1   
   110  106  112 1   
   111  106  113 1   
   112  107  108 1   
   113  107  109 1   
   114  114  115 1   
   115  114  125 1   
   116  115  116 1   
   117  115  118 1   
   118  115  126 1   
   119  116  117 2   
   120  116  134 1   
   121  118  119 1   
   122  118  127 1   
   123  118  128 1   
   124  119  120 ar  
   125  119  121 ar  
   126  120  122 ar  
   127  120  129 1   
   128  121  123 ar  
   129  121  130 1   
   130  122  124 ar  
   131  122  131 1   
   132  123  124 ar  
   133  123  132 1   
   134  124  133 1   
   135  134  135 1   
   136  134  140 1   
   137  135  136 1   
   138  135  138 1   
   139  135  141 1   
   140  136  137 2   
   141  136  148 1   
   142  138  139 1   
   143  138  142 1   
   144  138  143 1   
   145  139  140 1   
   146  139  144 1   
   147  139  145 1   
   148  140  146 1   
   149  140  147 1   
   150  148  149 1   
   151  148  157 1   
   152  149  150 1   
   153  149  152 1   
   154  149  158 1   
   155  150  151 2   
   156  150  163 1   
   157  152  153 1   
   158  152  159 1   
   159  152  160 1   
   160  153  154 1   
   161  153  161 1   
   162  153  162 1   
   163  154  155 1   
   164  154  156 1   
   165  163  164 1   
   166  163  168 1   
   167  164  165 1   
   168  164  166 1   
   169  164  167 1   
   170  170  171 1   
   171  170  172 1   
   172  173  174 1   
   173  173  175 1   
@<TRIPOS>SUBSTRUCTURE
     1 MOL         1 TEMP              0 ****  ****    0 ROOT
