@<TRIPOS>MOLECULE
MOL
  189   185     1     0     0
SMALL
resp


@<TRIPOS>ATOM
      1 C1          0.1510    2.2370   -5.7260 c3        1 MOL     -0.429417
      2 C2          0.5680    2.1420   -4.2230 c         1 MOL      0.627131
      3 O1         -0.2610    2.4440   -3.3430 o         1 MOL     -0.591852
      4 H1          0.7740    1.5660   -6.3180 hc        1 MOL      0.111767
      5 H2         -0.8940    1.9490   -5.8330 hc        1 MOL      0.111767
      6 H3          0.2840    3.2600   -6.0770 hc        1 MOL      0.111767
      7 N1          1.7590    1.6400   -3.9880 n         1 MOL     -0.504004
      8 C3          2.3110    1.3980   -2.6500 c3        1 MOL      0.287952
      9 C4          2.9060    2.6720   -2.0120 c         1 MOL      0.306128
     10 O2          3.9880    3.1240   -2.3480 o         1 MOL     -0.519208
     11 C5          3.4110    0.3190   -2.7780 c3        1 MOL     -0.294862
     12 C6          4.1150   -0.0670   -1.4380 c         1 MOL      0.685577
     13 O3          3.5020    0.2160   -0.3850 o         1 MOL     -0.602581
     14 O4          5.2080   -0.6600   -1.5000 o         1 MOL     -0.602581
     15 H4          2.2250    1.2630   -4.7920 hn        1 MOL      0.309876
     16 H5          1.5510    1.1480   -1.9130 h1        1 MOL     -0.007124
     17 H6          4.1720    0.7870   -3.4080 hc        1 MOL      0.060383
     18 H7          3.0110   -0.5350   -3.3050 hc        1 MOL      0.060383
     19 N2          2.1930    3.3450   -1.1460 n         1 MOL     -0.153934
     20 C7          2.4110    4.7770   -0.8700 c3        1 MOL     -0.086377
     21 C8          3.2880    5.0170    0.3780 c         1 MOL      0.425905
     22 O5          4.0280    6.0090    0.4300 o         1 MOL     -0.574428
     23 C9          1.0080    5.4970   -0.8110 c3        1 MOL     -0.177949
     24 C10         1.1290    7.0110   -0.6730 c3        1 MOL      0.033706
     25 C11        -0.0970    7.7760   -0.9820 c3        1 MOL     -0.218277
     26 C12        -0.2020    8.0120   -2.4770 c3        1 MOL      0.028374
     27 N3         -1.5610    8.4350   -2.8460 n4        1 MOL     -0.335138
     28 H8          1.2840    3.0070   -0.8490 hn        1 MOL      0.241065
     29 H9          2.9560    5.1820   -1.7140 h1        1 MOL      0.122327
     30 H10         0.3250    5.0260   -0.0950 hc        1 MOL      0.080256
     31 H11         0.4950    5.4110   -1.7690 hc        1 MOL      0.080256
     32 H12         1.9660    7.3530   -1.2860 hc        1 MOL      0.052296
     33 H13         1.3450    7.2070    0.3730 hc        1 MOL      0.052296
     34 H14         0.0160    8.6920   -0.4110 hc        1 MOL      0.083442
     35 H15        -0.9010    7.2990   -0.4110 hc        1 MOL      0.083442
     36 H16        -0.0050    7.0770   -3.0100 hx        1 MOL      0.104256
     37 H17         0.5240    8.7890   -2.7270 hx        1 MOL      0.104256
     38 H18        -1.7500    9.3610   -2.4870 hn        1 MOL      0.322846
     39 H19        -1.7490    8.3430   -3.8340 hn        1 MOL      0.322846
     40 H20        -2.2310    7.8290   -2.3810 hn        1 MOL      0.322846
     41 N4          3.2290    4.1530    1.3770 n         1 MOL     -0.261625
     42 C13         4.0890    4.0810    2.5830 c3        1 MOL      0.075111
     43 C14         5.3140    3.2140    2.3750 c         1 MOL      0.406621
     44 O6          6.0930    3.0880    3.3650 o         1 MOL     -0.512470
     45 C15         3.2260    3.4960    3.7480 c3        1 MOL     -0.371696
     46 C16         2.2870    2.2930    3.4060 c         1 MOL      0.865427
     47 O7          1.4190    2.0290    4.3100 o         1 MOL     -0.739963
     48 O8          2.4070    1.5800    2.3890 o         1 MOL     -0.739963
     49 H21         2.7150    3.2860    1.2840 hn        1 MOL      0.154495
     50 H22         4.4690    5.0540    2.8780 h1        1 MOL      0.099753
     51 H23         2.6530    4.3440    4.1300 hc        1 MOL      0.098550
     52 H24         3.9110    3.1370    4.5220 hc        1 MOL      0.098550
     53 N5          5.4830    2.5920    1.1890 n         1 MOL     -0.226585
     54 C17         6.7340    1.9840    0.7090 c3        1 MOL     -0.064919
     55 C18         7.2310    0.7050    1.4120 c         1 MOL      0.492082
     56 O9          8.3380    0.6030    1.8590 o         1 MOL     -0.562910
     57 H25         4.7830    2.6300    0.4670 hn        1 MOL      0.256149
     58 H26         7.6030    2.6510    0.6800 h1        1 MOL      0.064740
     59 H27         6.6970    1.6310   -0.3230 h1        1 MOL      0.064740
     60 N6          6.3180   -0.2580    1.6330 n         1 MOL     -0.089526
     61 C19         6.6410   -1.5850    2.2410 c3        1 MOL     -0.055067
     62 C20         6.8500   -2.7310    1.2320 c         1 MOL      0.385219
     63 O10         7.0570   -3.8820    1.6350 o         1 MOL     -0.564909
     64 C21         5.5130   -2.0030    3.2710 c3        1 MOL     -0.206446
     65 C22         4.0840   -1.7650    2.7180 c         1 MOL      0.700026
     66 O11         3.7180   -2.1650    1.5730 o         1 MOL     -0.667489
     67 O12         3.2950   -1.1430    3.3840 o         1 MOL     -0.667489
     68 H28         5.4320   -0.1630    1.1400 hn        1 MOL      0.012866
     69 H29         7.6160   -1.5070    2.7300 h1        1 MOL      0.125743
     70 H30         5.6800   -1.4060    4.1670 hc        1 MOL      0.064911
     71 H31         5.5230   -3.0420    3.6070 hc        1 MOL      0.064911
     72 N7          6.6060   -2.4970   -0.0200 n         1 MOL     -0.158309
     73 C23         6.6950   -3.5020   -1.0970 c3        1 MOL     -0.185918
     74 C24         5.3770   -4.1800   -1.5420 c         1 MOL      0.514026
     75 O13         5.4270   -4.9990   -2.4800 o         1 MOL     -0.571741
     76 H32         6.1700   -1.6390   -0.3260 hn        1 MOL      0.155377
     77 H33         7.2940   -4.3500   -0.7840 h1        1 MOL      0.114689
     78 H34         7.2190   -2.9610   -1.8910 h1        1 MOL      0.114689
     79 N8          4.1780   -3.9540   -0.9280 n         1 MOL     -0.197734
     80 C25         2.9240   -4.5720   -1.2750 c3        1 MOL     -0.072789
     81 C26         1.7270   -3.6640   -1.3430 c         1 MOL      0.745537
     82 O14         1.8390   -2.5440   -0.8030 o         1 MOL     -0.710831
     83 C27         2.6010   -5.7150   -0.4300 c3        1 MOL      0.306762
     84 C28         3.5390   -6.9130   -0.6380 c3        1 MOL     -0.503628
     85 O15         2.4890   -5.2930    0.9340 oh        1 MOL     -0.591832
     86 H35         4.2300   -3.3270   -0.1420 hn        1 MOL      0.194967
     87 H36         2.9890   -4.9480   -2.3000 h1        1 MOL      0.045977
     88 H37         1.5860   -5.9720   -0.7180 h1        1 MOL      0.034897
     89 H38         3.3950   -5.4000    1.2390 ho        1 MOL      0.400526
     90 H39         4.5940   -6.6570   -0.5780 hc        1 MOL      0.137954
     91 H40         3.1830   -7.6600    0.0720 hc        1 MOL      0.137954
     92 H41         3.4150   -7.3260   -1.6430 hc        1 MOL      0.137954
     93 N9          0.5870   -4.1210   -1.9050 n         1 MOL     -0.551698
     94 C29        -0.6570   -3.3390   -2.0390 c3        1 MOL      0.169819
     95 C30        -1.7520   -3.8720   -1.0290 c         1 MOL      0.497558
     96 O16        -1.9680   -5.0950   -0.8950 o         1 MOL     -0.558365
     97 C31        -1.1680   -3.2540   -3.5220 c3        1 MOL      0.010496
     98 C32        -0.1480   -2.5890   -4.4190 c3        1 MOL      0.225839
     99 C33        -2.5170   -2.6150   -3.6190 c3        1 MOL     -0.342127
    100 C34        -0.3570   -2.5630   -5.8850 c3        1 MOL     -0.283838
    101 H42         0.5210   -5.0620   -2.2650 hn        1 MOL      0.267085
    102 H43        -0.4520   -2.3370   -1.6800 h1        1 MOL      0.081245
    103 H44        -1.1760   -4.3000   -3.8070 hc        1 MOL      0.011723
    104 H45         0.8100   -3.0570   -4.2200 hc        1 MOL     -0.031584
    105 H46         0.0970   -1.6200   -3.9940 hc        1 MOL     -0.031584
    106 H47        -2.5350   -1.5780   -3.2870 hc        1 MOL      0.078031
    107 H48        -2.8370   -2.7130   -4.6560 hc        1 MOL      0.078031
    108 H49        -3.1740   -3.0100   -2.8400 hc        1 MOL      0.078031
    109 H50        -0.5080   -3.5650   -6.2930 hc        1 MOL      0.063839
    110 H51        -1.2270   -1.9650   -6.1560 hc        1 MOL      0.063839
    111 H52         0.5530   -2.2360   -6.3710 hc        1 MOL      0.063839
    112 N10        -2.3880   -2.9050   -0.3530 n         1 MOL     -0.066880
    113 C35        -3.4690   -3.1080    0.5100 c3        1 MOL     -0.127531
    114 C36        -4.7620   -2.6240   -0.0580 c         1 MOL      0.580183
    115 O17        -4.8010   -1.9250   -1.0860 o         1 MOL     -0.467791
    116 C37        -3.2990   -2.2120    1.8310 c3        1 MOL      0.107014
    117 C38        -2.1240   -2.4950    2.7830 c3        1 MOL     -0.478340
    118 O18        -3.1050   -0.9360    1.4960 oh        1 MOL     -0.445810
    119 H53        -2.1510   -1.9420   -0.5030 hn        1 MOL      0.036164
    120 H54        -3.5170   -4.1510    0.8410 h1        1 MOL      0.088254
    121 H55        -4.1960   -2.2720    2.4480 h1        1 MOL      0.051403
    122 H56        -2.1800   -0.7740    1.3010 ho        1 MOL      0.258578
    123 H57        -1.1950   -2.1420    2.3290 hc        1 MOL      0.147933
    124 H58        -2.2840   -2.0960    3.7780 hc        1 MOL      0.147933
    125 H59        -2.0380   -3.5670    2.9280 hc        1 MOL      0.147933
    126 N11        -5.8550   -2.9040    0.6760 n         1 MOL     -0.527511
    127 C39        -7.1870   -2.3590    0.1770 c3        1 MOL      0.097297
    128 C40        -7.2890   -0.8880    0.0250 c         1 MOL      0.245389
    129 O19        -7.8500   -0.4990   -0.9980 o         1 MOL     -0.455238
    130 C41        -8.2810   -2.7890    1.1970 c3        1 MOL      0.198715
    131 C42        -8.6110   -4.2610    1.1320 c3        1 MOL     -0.378389
    132 O20        -7.8860   -2.4700    2.4520 oh        1 MOL     -0.658206
    133 H60        -5.7360   -3.2060    1.6290 hn        1 MOL      0.301069
    134 H61        -7.5310   -2.7370   -0.7880 h1        1 MOL      0.113892
    135 H62        -9.1650   -2.2050    0.9580 h1        1 MOL      0.063010
    136 H63        -8.4050   -3.1380    2.9230 ho        1 MOL      0.428570
    137 H64        -8.8890   -4.6300    0.1370 hc        1 MOL      0.112958
    138 H65        -7.7290   -4.8440    1.4080 hc        1 MOL      0.112958
    139 H66        -9.3740   -4.4820    1.8710 hc        1 MOL      0.112958
    140 N12        -6.7230   -0.1190    0.9750 n         1 MOL     -0.081483
    141 C43        -6.7780    1.3610    1.0910 c3        1 MOL     -0.017312
    142 C44        -6.0310    2.0110   -0.0920 c         1 MOL      0.368358
    143 O21        -6.4810    3.0090   -0.6290 o         1 MOL     -0.521190
    144 C45        -6.1650    1.8220    2.3840 c3        1 MOL      0.019232
    145 C46        -6.9290    1.2730    3.5910 c3        1 MOL      0.242056
    146 C47        -6.7250    2.1390    4.8810 c3        1 MOL     -0.194248
    147 C48        -7.1150    1.5350    6.1860 c3        1 MOL     -0.061628
    148 N13        -6.0510    0.5470    6.5080 n4        1 MOL     -0.412992
    149 H67        -6.5670   -0.5660    1.8700 hn        1 MOL      0.205854
    150 H68        -7.7970    1.7380    1.0510 h1        1 MOL      0.073498
    151 H69        -6.2890    2.9090    2.4650 hc        1 MOL     -0.005131
    152 H70        -5.1060    1.5640    2.3830 hc        1 MOL     -0.005131
    153 H71        -6.5160    0.2950    3.8330 hc        1 MOL     -0.055514
    154 H72        -7.9900    1.0900    3.4270 hc        1 MOL     -0.055514
    155 H73        -7.3400    3.0170    4.7040 hc        1 MOL      0.090681
    156 H74        -5.6870    2.4340    4.9820 hc        1 MOL      0.090681
    157 H75        -8.1120    1.1120    6.1130 hx        1 MOL      0.139202
    158 H76        -7.1410    2.2790    6.9820 hx        1 MOL      0.139202
    159 H77        -5.9920   -0.1180    5.7550 hn        1 MOL      0.334768
    160 H78        -5.1380    0.9660    6.4920 hn        1 MOL      0.334768
    161 H79        -6.2040    0.0660    7.3920 hn        1 MOL      0.334768
    162 N14        -4.9060    1.4330   -0.5490 n         1 MOL     -0.064122
    163 C49        -4.1160    1.7600   -1.6980 c3        1 MOL     -0.317433
    164 C50        -4.8180    1.4720   -3.0310 c         1 MOL      0.523883
    165 O22        -4.3760    2.0310   -4.0490 o         1 MOL     -0.544070
    166 C51        -2.8120    1.0620   -1.4510 c3        1 MOL      0.128484
    167 C52        -1.8330    1.7900   -0.4930 c3        1 MOL      0.033169
    168 C53        -0.5840    0.9750   -0.1390 c         1 MOL      0.629167
    169 O23        -0.5580   -0.3050   -0.1760 o         1 MOL     -0.701379
    170 O24         0.4630    1.5720    0.2610 o         1 MOL     -0.701379
    171 H80        -4.6160    0.5750   -0.0970 hn        1 MOL      0.067874
    172 H81        -3.9250    2.8350   -1.6810 h1        1 MOL      0.144416
    173 H82        -2.2860    0.9330   -2.3940 hc        1 MOL      0.058200
    174 H83        -3.0220    0.0810   -1.0300 hc        1 MOL      0.058200
    175 H84        -2.3390    2.1540    0.4000 hc        1 MOL     -0.029961
    176 H85        -1.4980    2.6690   -1.0350 hc        1 MOL     -0.029961
    177 N15        -5.9660    0.7420   -3.1090 n         1 MOL     -0.191824
    178 C54        -6.8030    0.4830   -4.3610 c3        1 MOL     -0.274473
    179 H86        -6.2390   -0.1440   -5.0510 h1        1 MOL      0.117694
    180 H87        -7.7270   -0.0240   -4.0820 h1        1 MOL      0.117694
    181 H88        -7.0400    1.4320   -4.8430 h1        1 MOL      0.117694
    182 H89        -6.3410    0.2620   -2.3070 hn        1 MOL      0.208792
    183 Ca1         1.7280   -0.6090    1.1900 Ca        1 MOL      1.792921
    184 O25        -0.1400    0.1760    2.9040 oh        1 MOL     -0.853954
    185 H90        -1.0640    0.4440    2.9030 ho        1 MOL      0.395481
    186 H91         0.2800    0.7960    3.4980 ho        1 MOL      0.395481
    187 O26         1.2180   -3.0980    2.1090 oh        1 MOL     -0.853954
    188 H92         1.3460   -3.3880    3.0150 ho        1 MOL      0.395481
    189 H93         1.6910   -3.7500    1.5830 ho        1 MOL      0.395481
@<TRIPOS>BOND
     1    1    2 1   
     2    1    4 1   
     3    1    5 1   
     4    1    6 1   
     5    2    3 2   
     6    2    7 1   
     7    7    8 1   
     8    7   15 1   
     9    8    9 1   
    10    8   11 1   
    11    8   16 1   
    12    9   10 2   
    13    9   19 1   
    14   11   12 1   
    15   11   17 1   
    16   11   18 1   
    17   12   13 1   
    18   12   14 1   
    19   19   20 1   
    20   19   28 1   
    21   20   21 1   
    22   20   23 1   
    23   20   29 1   
    24   21   22 2   
    25   21   41 1   
    26   23   24 1   
    27   23   30 1   
    28   23   31 1   
    29   24   25 1   
    30   24   32 1   
    31   24   33 1   
    32   25   26 1   
    33   25   34 1   
    34   25   35 1   
    35   26   27 1   
    36   26   36 1   
    37   26   37 1   
    38   27   38 1   
    39   27   39 1   
    40   27   40 1   
    41   41   42 1   
    42   41   49 1   
    43   42   43 1   
    44   42   45 1   
    45   42   50 1   
    46   43   44 2   
    47   43   53 1   
    48   45   46 1   
    49   45   51 1   
    50   45   52 1   
    51   46   47 1   
    52   46   48 1   
    53   53   54 1   
    54   53   57 1   
    55   54   55 1   
    56   54   58 1   
    57   54   59 1   
    58   55   56 2   
    59   55   60 1   
    60   60   61 1   
    61   60   68 1   
    62   61   62 1   
    63   61   64 1   
    64   61   69 1   
    65   62   63 2   
    66   62   72 1   
    67   64   65 1   
    68   64   70 1   
    69   64   71 1   
    70   65   66 1   
    71   65   67 1   
    72   72   73 1   
    73   72   76 1   
    74   73   74 1   
    75   73   77 1   
    76   73   78 1   
    77   74   75 2   
    78   74   79 1   
    79   79   80 1   
    80   79   86 1   
    81   80   81 1   
    82   80   83 1   
    83   80   87 1   
    84   81   82 2   
    85   81   93 1   
    86   83   84 1   
    87   83   85 1   
    88   83   88 1   
    89   84   90 1   
    90   84   91 1   
    91   84   92 1   
    92   85   89 1   
    93   93   94 1   
    94   93  101 1   
    95   94   95 1   
    96   94   97 1   
    97   94  102 1   
    98   95   96 2   
    99   95  112 1   
   100   97   98 1   
   101   97   99 1   
   102   97  103 1   
   103   98  100 1   
   104   98  104 1   
   105   98  105 1   
   106   99  106 1   
   107   99  107 1   
   108   99  108 1   
   109  100  109 1   
   110  100  110 1   
   111  100  111 1   
   112  112  113 1   
   113  112  119 1   
   114  113  114 1   
   115  113  116 1   
   116  113  120 1   
   117  114  115 2   
   118  114  126 1   
   119  116  117 1   
   120  116  118 1   
   121  116  121 1   
   122  117  123 1   
   123  117  124 1   
   124  117  125 1   
   125  118  122 1   
   126  126  127 1   
   127  126  133 1   
   128  127  128 1   
   129  127  130 1   
   130  127  134 1   
   131  128  129 2   
   132  128  140 1   
   133  130  131 1   
   134  130  132 1   
   135  130  135 1   
   136  131  137 1   
   137  131  138 1   
   138  131  139 1   
   139  132  136 1   
   140  140  141 1   
   141  140  149 1   
   142  141  142 1   
   143  141  144 1   
   144  141  150 1   
   145  142  143 2   
   146  142  162 1   
   147  144  145 1   
   148  144  151 1   
   149  144  152 1   
   150  145  146 1   
   151  145  153 1   
   152  145  154 1   
   153  146  147 1   
   154  146  155 1   
   155  146  156 1   
   156  147  148 1   
   157  147  157 1   
   158  147  158 1   
   159  148  159 1   
   160  148  160 1   
   161  148  161 1   
   162  162  163 1   
   163  162  171 1   
   164  163  164 1   
   165  163  166 1   
   166  163  172 1   
   167  164  165 2   
   168  164  177 1   
   169  166  167 1   
   170  166  173 1   
   171  166  174 1   
   172  167  168 1   
   173  167  175 1   
   174  167  176 1   
   175  168  169 1   
   176  168  170 1   
   177  177  178 1   
   178  177  182 1   
   179  178  179 1   
   180  178  180 1   
   181  178  181 1   
   182  184  185 1   
   183  184  186 1   
   184  187  188 1   
   185  187  189 1   
@<TRIPOS>SUBSTRUCTURE
     1 MOL         1 TEMP              0 ****  ****    0 ROOT
