@<TRIPOS>MOLECULE
MOL
  176   174     1     0     0
SMALL
resp


@<TRIPOS>ATOM
      1 C1          0.5890    3.0350    6.6840 c3        1 MOL     -0.305035
      2 C2          0.5850    2.6640    5.1440 c         1 MOL      0.717690
      3 O1          1.6730    2.4380    4.6210 o         1 MOL     -0.575783
      4 H1          1.4150    3.7140    6.8920 hc        1 MOL      0.076349
      5 H2         -0.3530    3.5190    6.9440 hc        1 MOL      0.076349
      6 H3          0.7060    2.1270    7.2770 hc        1 MOL      0.076349
      7 N1         -0.5590    2.5460    4.5110 n         1 MOL     -0.588003
      8 C3         -0.7330    2.2570    3.0260 c3        1 MOL      0.068841
      9 C4         -0.5940    3.5880    2.2790 c         1 MOL      0.619542
     10 O2         -1.0620    4.6480    2.7640 o         1 MOL     -0.564069
     11 C5         -2.0930    1.6400    2.8080 c3        1 MOL     -0.297690
     12 C6         -2.6370    1.4170    1.3800 c         1 MOL      0.891607
     13 O3         -3.4680    0.5060    1.1770 o         1 MOL     -0.755726
     14 O4         -2.2990    2.1010    0.4090 o         1 MOL     -0.755726
     15 H4         -1.3670    2.5210    5.1080 hn        1 MOL      0.322142
     16 H5         -0.0090    1.6000    2.5330 h1        1 MOL      0.021710
     17 H6         -2.8230    2.3140    3.2460 hc        1 MOL      0.087032
     18 H7         -2.1910    0.7020    3.3510 hc        1 MOL      0.087032
     19 N2         -0.0470    3.6110    1.0420 n         1 MOL     -0.458947
     20 C7          0.1780    4.7220    0.1040 c3        1 MOL     -0.235203
     21 C8         -0.9950    5.2690   -0.6440 c         1 MOL      0.624224
     22 O5         -0.9790    6.4050   -1.0640 o         1 MOL     -0.596947
     23 C9          1.4210    4.3610   -0.7130 c3        1 MOL      0.251085
     24 C10         1.9300    5.5560   -1.5000 c3        1 MOL     -0.249258
     25 C11         3.2150    5.1130   -2.2640 c3        1 MOL      0.075497
     26 C12         4.0210    6.2830   -2.7890 c3        1 MOL     -0.034469
     27 N3          5.0770    5.7650   -3.6060 n4        1 MOL     -0.181824
     28 H8          0.2420    2.6990    0.7170 hn        1 MOL      0.294978
     29 H9          0.4340    5.5980    0.7060 h1        1 MOL      0.132532
     30 H10         1.1860    3.6620   -1.5080 hc        1 MOL      0.029819
     31 H11         2.1530    3.9940    0.0080 hc        1 MOL      0.029819
     32 H12         2.0980    6.2940   -0.7220 hc        1 MOL      0.070947
     33 H13         1.3030    6.0090   -2.2700 hc        1 MOL      0.070947
     34 H14         2.9110    4.4490   -3.0670 hc        1 MOL      0.015193
     35 H15         3.7980    4.5500   -1.5390 hc        1 MOL      0.015193
     36 H16         4.5090    6.8580   -2.0020 hx        1 MOL      0.095173
     37 H17         3.4270    6.9320   -3.4340 hx        1 MOL      0.095173
     38 H18         5.5470    4.9720   -3.1810 hn        1 MOL      0.278155
     39 H19         4.6690    5.4300   -4.4640 hn        1 MOL      0.278155
     40 H20         5.7820    6.3980   -3.9500 hn        1 MOL      0.278155
     41 N4         -1.9990    4.4650   -0.8920 n         1 MOL     -0.365556
     42 C13        -3.1220    4.7420   -1.8280 c3        1 MOL      0.067467
     43 C14        -4.4730    4.5380   -1.1110 c         1 MOL      0.484255
     44 O6         -5.4710    5.0180   -1.6950 o         1 MOL     -0.552083
     45 C15        -3.0380    3.9310   -3.1240 c3        1 MOL     -0.193548
     46 C16        -2.7720    2.4130   -2.9280 c         1 MOL      0.742911
     47 O7         -3.7460    1.6390   -2.7260 o         1 MOL     -0.739954
     48 O8         -1.5440    2.0060   -2.7970 o         1 MOL     -0.739954
     49 H21        -2.1230    3.6070   -0.3710 hn        1 MOL      0.257706
     50 H22        -3.1730    5.8290   -1.9100 h1        1 MOL      0.084953
     51 H23        -2.1680    4.2590   -3.6920 hc        1 MOL      0.051652
     52 H24        -3.9390    4.1140   -3.7110 hc        1 MOL      0.051652
     53 N5         -4.5960    3.7310   -0.0220 n         1 MOL     -0.364610
     54 C17        -5.9290    3.5190    0.7100 c3        1 MOL      0.050185
     55 C18        -6.6630    2.1430    0.4800 c         1 MOL      0.475864
     56 O9         -7.6850    1.9380    1.1270 o         1 MOL     -0.551152
     57 H25        -3.6950    3.3970    0.3180 hn        1 MOL      0.217327
     58 H26        -6.6290    4.3250    0.5140 h1        1 MOL      0.058515
     59 H27        -5.7370    3.5840    1.7770 h1        1 MOL      0.058515
     60 N6         -6.1510    1.2260   -0.3940 n         1 MOL     -0.260948
     61 C19        -6.9910   -0.0170   -0.6860 c3        1 MOL     -0.062625
     62 C20        -6.9530   -0.9500    0.6370 c         1 MOL      0.518651
     63 O10        -7.8010   -1.7700    0.6830 o         1 MOL     -0.530101
     64 C21        -6.4160   -0.6740   -1.9610 c3        1 MOL     -0.274025
     65 C22        -5.3140   -1.7540   -1.7800 c         1 MOL      0.591089
     66 N7         -5.5700   -2.9490   -2.2380 n         1 MOL     -0.715916
     67 O11        -4.1920   -1.5390   -1.4010 o         1 MOL     -0.596244
     68 H28        -5.3520    1.4570   -0.9570 hn        1 MOL      0.223457
     69 H29        -8.0080    0.3510   -0.8240 h1        1 MOL      0.128417
     70 H30        -6.0740    0.0910   -2.6540 hc        1 MOL      0.115592
     71 H31        -7.2090   -1.1880   -2.5100 hc        1 MOL      0.115592
     72 H32        -6.4830   -3.1200   -2.6460 hn        1 MOL      0.366323
     73 H33        -4.8490   -3.6270   -2.0470 hn        1 MOL      0.366323
     74 N8         -5.9450   -0.8150    1.5440 n         1 MOL     -0.179482
     75 C23        -5.7230   -1.6920    2.7050 c3        1 MOL     -0.247669
     76 C24        -4.8830   -2.9580    2.5210 c         1 MOL      0.553830
     77 O12        -4.9980   -3.9140    3.3680 o         1 MOL     -0.544129
     78 H34        -5.2640   -0.1000    1.3360 hn        1 MOL      0.170257
     79 H35        -6.6780   -1.9840    3.1410 h1        1 MOL      0.125966
     80 H36        -5.2250   -1.0610    3.4310 h1        1 MOL      0.125966
     81 N9         -3.9710   -2.9480    1.4950 n         1 MOL     -0.317693
     82 C25        -2.7250   -3.7050    1.5610 c3        1 MOL      0.058542
     83 C26        -1.4770   -2.9060    1.2310 c         1 MOL      0.560629
     84 O13        -1.6110   -1.9740    0.4220 o         1 MOL     -0.529780
     85 C27        -2.8260   -5.0760    0.7560 c3        1 MOL     -0.224713
     86 C28        -3.1170   -5.0390   -0.7650 ca        1 MOL      0.262898
     87 C29        -2.0400   -4.7640   -1.6900 ca        1 MOL     -0.275764
     88 C30        -4.3080   -5.4220   -1.3040 ca        1 MOL     -0.275764
     89 C31        -2.2470   -4.9240   -3.0490 ca        1 MOL     -0.156466
     90 C32        -4.5950   -5.7060   -2.6680 ca        1 MOL     -0.156466
     91 C33        -3.5240   -5.3850   -3.4990 ca        1 MOL      0.210229
     92 O14        -3.7970   -5.4090   -4.8340 oh        1 MOL     -0.453336
     93 H37        -3.8750   -2.1530    0.8650 hn        1 MOL      0.174322
     94 H38        -2.6610   -3.9430    2.6210 h1        1 MOL      0.061085
     95 H39        -3.4900   -5.7500    1.2990 hc        1 MOL      0.076232
     96 H40        -1.8710   -5.5760    0.9050 hc        1 MOL      0.076232
     97 H41        -1.0960   -4.3980   -1.3150 ha        1 MOL      0.160498
     98 H42        -5.0410   -5.8120   -0.6110 ha        1 MOL      0.160498
     99 H43        -1.5020   -4.7040   -3.8000 ha        1 MOL      0.142057
    100 H44        -5.5090   -6.0410   -3.1370 ha        1 MOL      0.142057
    101 H45        -3.0820   -4.9580   -5.2990 ho        1 MOL      0.344422
    102 N10        -0.3570   -3.4110    1.7250 n         1 MOL     -0.589958
    103 C34         1.0310   -2.8620    1.5590 c3        1 MOL      0.245690
    104 C35         2.1090   -3.8260    0.9920 c         1 MOL      0.514667
    105 O15         1.8720   -4.9940    0.7830 o         1 MOL     -0.549529
    106 C36         1.5250   -2.0680    2.7850 c3        1 MOL      0.034089
    107 C37         1.6850   -2.9050    3.9970 c3        1 MOL      0.079718
    108 C38         0.4000   -1.1100    3.1330 c3        1 MOL     -0.127263
    109 C39         2.9920   -3.6690    4.0870 c3        1 MOL     -0.219271
    110 H46        -0.5480   -4.0640    2.4730 hn        1 MOL      0.326582
    111 H47         0.9410   -2.1210    0.7680 h1        1 MOL      0.035425
    112 H48         2.3800   -1.5490    2.3410 hc        1 MOL     -0.004612
    113 H49         0.8130   -3.5670    4.0490 hc        1 MOL      0.002093
    114 H50         1.6010   -2.2670    4.8750 hc        1 MOL      0.002093
    115 H51        -0.4570   -1.6100    3.5890 hc        1 MOL      0.037237
    116 H52         0.7560   -0.4260    3.9080 hc        1 MOL      0.037237
    117 H53         0.0250   -0.4920    2.3200 hc        1 MOL      0.037237
    118 H54         3.1660   -4.2660    3.1870 hc        1 MOL      0.047757
    119 H55         3.7730   -2.9050    4.0750 hc        1 MOL      0.047757
    120 H56         3.0160   -4.2430    5.0140 hc        1 MOL      0.047757
    121 N11         3.3040   -3.2760    0.7000 n         1 MOL     -0.214248
    122 C40         4.3270   -3.8210   -0.1630 c3        1 MOL      0.039305
    123 C41         5.6530   -3.1100    0.1440 c         1 MOL      0.399917
    124 O16         5.6640   -2.2660    1.0000 o         1 MOL     -0.414682
    125 C42         3.8740   -3.6080   -1.6000 c3        1 MOL     -0.087373
    126 O17         3.9100   -2.2120   -1.8190 oh        1 MOL     -0.515082
    127 H57         3.4870   -2.3580    1.0770 hn        1 MOL      0.117616
    128 H58         4.5100   -4.8840    0.0090 h1        1 MOL      0.077788
    129 H59         2.9110   -4.0690   -1.8270 h1        1 MOL      0.087795
    130 H60         4.5880   -4.0630   -2.2710 h1        1 MOL      0.087795
    131 H61         3.7980   -2.0320   -2.7450 ho        1 MOL      0.415079
    132 N12         6.7360   -3.4850   -0.5490 n         1 MOL     -0.373520
    133 C43         8.0870   -3.0340   -0.3970 c3        1 MOL      0.190735
    134 C44         8.2470   -1.6200   -0.9090 c         1 MOL      0.461268
    135 O18         8.9600   -0.8150   -0.3400 o         1 MOL     -0.495798
    136 C45         9.0570   -4.0560   -0.9620 c3        1 MOL     -0.436121
    137 H62         6.6080   -4.3340   -1.0740 hn        1 MOL      0.251632
    138 H63         8.3900   -2.9920    0.6530 h1        1 MOL      0.072545
    139 H64         9.9610   -3.8850   -0.3770 hc        1 MOL      0.134601
    140 H65         8.7850   -5.0650   -0.6770 hc        1 MOL      0.134601
    141 H66         9.1710   -3.8990   -2.0340 hc        1 MOL      0.134601
    142 N13         7.4560   -1.1800   -1.9440 n         1 MOL     -0.453335
    143 C46         7.3080    0.2480   -2.2260 c3        1 MOL      0.215818
    144 C47         6.5460    1.0710   -1.1690 c         1 MOL      0.358929
    145 O19         7.0550    2.1230   -0.7970 o         1 MOL     -0.491800
    146 C48         6.8260    0.4670   -3.6590 c3        1 MOL     -0.204630
    147 H67         6.8150   -1.8010   -2.4190 hn        1 MOL      0.249899
    148 H68         8.3030    0.6940   -2.1630 h1        1 MOL      0.061748
    149 H69         6.6830    1.5330   -3.8370 hc        1 MOL      0.044150
    150 H70         7.4390   -0.0380   -4.3980 hc        1 MOL      0.044150
    151 H71         5.8830   -0.0730   -3.6210 hc        1 MOL      0.044150
    152 N14         5.3550    0.6240   -0.7530 n         1 MOL     -0.284338
    153 C49         4.5340    1.4340    0.1780 c3        1 MOL     -0.073114
    154 C50         5.2510    1.4570    1.5350 c         1 MOL      0.384432
    155 O20         5.1540    2.5280    2.2120 o         1 MOL     -0.531259
    156 C51         3.1130    0.9310    0.3330 c3        1 MOL     -0.001095
    157 C52         2.4660    0.8010   -1.0520 c3        1 MOL      0.195591
    158 C53         1.0210    0.4420   -1.0820 c         1 MOL      0.682310
    159 O21         0.2470    0.9740   -0.2560 o         1 MOL     -0.765665
    160 O22         0.5320   -0.4350   -1.8040 o         1 MOL     -0.765665
    161 H72         4.8040   -0.1450   -1.1180 hn        1 MOL      0.273834
    162 H73         4.4110    2.4530   -0.1660 h1        1 MOL      0.064346
    163 H74         2.5950    1.6730    0.9410 hc        1 MOL      0.035823
    164 H75         3.1260   -0.0420    0.8260 hc        1 MOL      0.035823
    165 H76         2.9850    0.0110   -1.6020 hc        1 MOL     -0.126509
    166 H77         2.7980    1.6740   -1.6240 hc        1 MOL     -0.126509
    167 N15         6.0100    0.4530    1.8560 n         1 MOL      0.003875
    168 C54         6.7680    0.3860    3.0930 c3        1 MOL     -0.263375
    169 H78         7.2690    1.3390    3.2630 h1        1 MOL      0.105348
    170 H79         6.0920    0.1800    3.9240 h1        1 MOL      0.105348
    171 H80         7.5110   -0.4070    3.0220 h1        1 MOL      0.105348
    172 H81         5.9980   -0.4040    1.3150 hn        1 MOL      0.113225
    173 Ca1        -2.0040    0.0630   -1.2670 Ca        1 MOL      1.707355
    174 O23        -1.9420   -1.6170   -3.2470 oh        1 MOL     -0.792525
    175 H82        -1.6050   -1.3430   -4.0980 ho        1 MOL      0.384979
    176 H83        -1.8320   -2.5720   -3.2420 ho        1 MOL      0.384979
@<TRIPOS>BOND
     1    1    2 1   
     2    1    4 1   
     3    1    5 1   
     4    1    6 1   
     5    2    3 2   
     6    2    7 1   
     7    7    8 1   
     8    7   15 1   
     9    8    9 1   
    10    8   11 1   
    11    8   16 1   
    12    9   10 2   
    13    9   19 1   
    14   11   12 1   
    15   11   17 1   
    16   11   18 1   
    17   12   13 1   
    18   12   14 1   
    19   19   20 1   
    20   19   28 1   
    21   20   21 1   
    22   20   23 1   
    23   20   29 1   
    24   21   22 2   
    25   21   41 1   
    26   23   24 1   
    27   23   30 1   
    28   23   31 1   
    29   24   25 1   
    30   24   32 1   
    31   24   33 1   
    32   25   26 1   
    33   25   34 1   
    34   25   35 1   
    35   26   27 1   
    36   26   36 1   
    37   26   37 1   
    38   27   38 1   
    39   27   39 1   
    40   27   40 1   
    41   41   42 1   
    42   41   49 1   
    43   42   43 1   
    44   42   45 1   
    45   42   50 1   
    46   43   44 2   
    47   43   53 1   
    48   45   46 1   
    49   45   51 1   
    50   45   52 1   
    51   46   47 1   
    52   46   48 1   
    53   53   54 1   
    54   53   57 1   
    55   54   55 1   
    56   54   58 1   
    57   54   59 1   
    58   55   56 2   
    59   55   60 1   
    60   60   61 1   
    61   60   68 1   
    62   61   62 1   
    63   61   64 1   
    64   61   69 1   
    65   62   63 2   
    66   62   74 1   
    67   64   65 1   
    68   64   70 1   
    69   64   71 1   
    70   65   66 1   
    71   65   67 2   
    72   66   72 1   
    73   66   73 1   
    74   74   75 1   
    75   74   78 1   
    76   75   76 1   
    77   75   79 1   
    78   75   80 1   
    79   76   77 2   
    80   76   81 1   
    81   81   82 1   
    82   81   93 1   
    83   82   83 1   
    84   82   85 1   
    85   82   94 1   
    86   83   84 2   
    87   83  102 1   
    88   85   86 1   
    89   85   95 1   
    90   85   96 1   
    91   86   87 ar  
    92   86   88 ar  
    93   87   89 ar  
    94   87   97 1   
    95   88   90 ar  
    96   88   98 1   
    97   89   91 ar  
    98   89   99 1   
    99   90   91 ar  
   100   90  100 1   
   101   91   92 1   
   102   92  101 1   
   103  102  103 1   
   104  102  110 1   
   105  103  104 1   
   106  103  106 1   
   107  103  111 1   
   108  104  105 2   
   109  104  121 1   
   110  106  107 1   
   111  106  108 1   
   112  106  112 1   
   113  107  109 1   
   114  107  113 1   
   115  107  114 1   
   116  108  115 1   
   117  108  116 1   
   118  108  117 1   
   119  109  118 1   
   120  109  119 1   
   121  109  120 1   
   122  121  122 1   
   123  121  127 1   
   124  122  123 1   
   125  122  125 1   
   126  122  128 1   
   127  123  124 2   
   128  123  132 1   
   129  125  126 1   
   130  125  129 1   
   131  125  130 1   
   132  126  131 1   
   133  132  133 1   
   134  132  137 1   
   135  133  134 1   
   136  133  136 1   
   137  133  138 1   
   138  134  135 2   
   139  134  142 1   
   140  136  139 1   
   141  136  140 1   
   142  136  141 1   
   143  142  143 1   
   144  142  147 1   
   145  143  144 1   
   146  143  146 1   
   147  143  148 1   
   148  144  145 2   
   149  144  152 1   
   150  146  149 1   
   151  146  150 1   
   152  146  151 1   
   153  152  153 1   
   154  152  161 1   
   155  153  154 1   
   156  153  156 1   
   157  153  162 1   
   158  154  155 2   
   159  154  167 1   
   160  156  157 1   
   161  156  163 1   
   162  156  164 1   
   163  157  158 1   
   164  157  165 1   
   165  157  166 1   
   166  158  159 1   
   167  158  160 1   
   168  167  168 1   
   169  167  172 1   
   170  168  169 1   
   171  168  170 1   
   172  168  171 1   
   173  174  175 1   
   174  174  176 1   
@<TRIPOS>SUBSTRUCTURE
     1 MOL         1 TEMP              0 ****  ****    0 ROOT
