@<TRIPOS>MOLECULE
MOL
  189   185     1     0     0
SMALL
resp


@<TRIPOS>ATOM
      1 C1         -0.0760    2.2130    5.5840 c3        1 MOL     -0.302511
      2 C2         -0.5380    2.2510    4.1650 c         1 MOL      0.673102
      3 O1          0.1670    2.8100    3.3400 o         1 MOL     -0.620149
      4 H1          0.5560    1.3380    5.7370 hc        1 MOL      0.073268
      5 H2          0.4940    3.1150    5.8060 hc        1 MOL      0.073268
      6 H3         -0.9400    2.1570    6.2470 hc        1 MOL      0.073268
      7 N1         -1.6520    1.6290    3.9070 n         1 MOL     -0.502869
      8 C3         -2.1900    1.4660    2.5310 c3        1 MOL      0.165732
      9 C4         -2.7280    2.7810    1.9710 c         1 MOL      0.380622
     10 O2         -3.6010    3.4370    2.5040 o         1 MOL     -0.542371
     11 C5         -3.2430    0.4180    2.5220 c3        1 MOL     -0.236430
     12 C6         -4.0160    0.1510    1.1740 c         1 MOL      0.720483
     13 O3         -3.4120    0.3720    0.1040 o         1 MOL     -0.669665
     14 O4         -5.1670   -0.4450    1.1840 o         1 MOL     -0.669665
     15 H4         -2.1320    1.3380    4.7430 hn        1 MOL      0.312418
     16 H5         -1.4020    1.0580    1.8860 h1        1 MOL      0.001129
     17 H6         -4.0010    0.6390    3.2660 hc        1 MOL      0.057783
     18 H7         -2.8560   -0.5920    2.6880 hc        1 MOL      0.057783
     19 N2         -2.0690    3.3120    0.8790 n         1 MOL     -0.032095
     20 C7         -2.2370    4.6790    0.2970 c3        1 MOL     -0.061033
     21 C8         -3.1250    4.8280   -0.9490 c         1 MOL      0.555567
     22 O5         -3.8620    5.7290   -1.1290 o         1 MOL     -0.551832
     23 C9         -0.8640    5.3310    0.1990 c3        1 MOL     -0.286308
     24 C10        -0.5450    6.3670    1.3120 c3        1 MOL      0.201964
     25 C11        -1.4790    7.6130    1.2850 c3        1 MOL     -0.318475
     26 C12        -1.2060    8.5890    2.4260 c3        1 MOL      0.052709
     27 N3         -1.4390    8.0590    3.8450 n4        1 MOL     -0.453114
     28 H8         -1.3140    2.7380    0.5380 hn        1 MOL      0.128434
     29 H9         -2.8760    5.1710    1.0380 h1        1 MOL      0.055631
     30 H10        -0.9090    5.9320   -0.7110 hc        1 MOL      0.101083
     31 H11        -0.0410    4.6200    0.1700 hc        1 MOL      0.101083
     32 H12         0.4930    6.7030    1.2260 hc        1 MOL     -0.005165
     33 H13        -0.5790    5.8590    2.2670 hc        1 MOL     -0.005165
     34 H14        -2.4520    7.1410    1.4530 hc        1 MOL      0.135501
     35 H15        -1.4240    8.1260    0.3270 hc        1 MOL      0.135501
     36 H16        -1.8160    9.4610    2.1970 hx        1 MOL      0.094942
     37 H17        -0.1920    8.9840    2.3460 hx        1 MOL      0.094942
     38 H18        -1.4980    8.7950    4.5290 hn        1 MOL      0.354413
     39 H19        -2.2580    7.4710    3.8440 hn        1 MOL      0.354413
     40 H20        -0.7330    7.4230    4.1770 hn        1 MOL      0.354413
     41 N4         -2.9740    3.7940   -1.8470 n         1 MOL     -0.313155
     42 C13        -3.8240    3.6750   -2.9870 c3        1 MOL     -0.004839
     43 C14        -5.0830    2.8400   -2.7180 c         1 MOL      0.342676
     44 O6         -6.0160    2.6710   -3.5270 o         1 MOL     -0.502935
     45 C15        -3.2030    3.1930   -4.3140 c3        1 MOL     -0.138565
     46 C16        -2.5800    1.7870   -4.1760 c         1 MOL      0.744159
     47 O7         -2.2470    1.2890   -5.2740 o         1 MOL     -0.694299
     48 O8         -2.5590    1.2100   -3.0770 o         1 MOL     -0.694299
     49 H21        -2.4770    2.9520   -1.5740 hn        1 MOL      0.164262
     50 H22        -4.1690    4.6930   -3.1450 h1        1 MOL      0.096306
     51 H23        -2.4500    3.9230   -4.6010 hc        1 MOL      0.036593
     52 H24        -3.9840    3.2300   -5.0730 hc        1 MOL      0.036593
     53 N5         -5.1630    2.2790   -1.5100 n         1 MOL     -0.079644
     54 C17        -6.4020    1.9200   -0.8350 c3        1 MOL     -0.151039
     55 C18        -7.0640    0.6250   -1.3490 c         1 MOL      0.549755
     56 O9         -8.2390    0.5840   -1.6440 o         1 MOL     -0.578696
     57 H25        -4.3510    2.3100   -0.9050 hn        1 MOL      0.131639
     58 H26        -7.0780    2.7660   -0.7990 h1        1 MOL      0.084660
     59 H27        -6.1290    1.9430    0.2260 h1        1 MOL      0.084660
     60 N6         -6.2780   -0.4330   -1.5050 n         1 MOL     -0.095631
     61 C19        -6.7050   -1.7100   -2.0410 c3        1 MOL     -0.028530
     62 C20        -6.8450   -2.9000   -1.0200 c         1 MOL      0.295826
     63 O10        -7.4190   -3.9430   -1.2800 o         1 MOL     -0.501713
     64 C21        -5.6490   -2.1380   -3.0990 c3        1 MOL     -0.258134
     65 C22        -4.2340   -2.2030   -2.6090 c         1 MOL      0.722352
     66 O11        -3.9280   -2.4720   -1.3820 o         1 MOL     -0.679310
     67 O12        -3.2330   -1.9410   -3.3000 o         1 MOL     -0.679310
     68 H28        -5.3270   -0.4680   -1.1520 hn        1 MOL     -0.051607
     69 H29        -7.6420   -1.5770   -2.5860 h1        1 MOL      0.133924
     70 H30        -5.7850   -1.5440   -4.0100 hc        1 MOL      0.098022
     71 H31        -5.9580   -3.0990   -3.4840 hc        1 MOL      0.098022
     72 N7         -6.4250   -2.6510    0.2300 n         1 MOL     -0.037721
     73 C23        -6.4050   -3.5170    1.3720 c3        1 MOL     -0.113130
     74 C24        -5.2050   -4.3970    1.6000 c         1 MOL      0.615369
     75 O13        -5.3240   -5.4970    2.1450 o         1 MOL     -0.601735
     76 H32        -6.0970   -1.7120    0.3580 hn        1 MOL      0.142003
     77 H33        -7.3310   -4.0900    1.3400 h1        1 MOL      0.050628
     78 H34        -6.4250   -2.9590    2.3080 h1        1 MOL      0.050628
     79 N8         -4.1180   -3.8600    1.1260 n         1 MOL     -0.340905
     80 C25        -2.7430   -4.4030    1.1990 c3        1 MOL     -0.184400
     81 C26        -1.7350   -3.3390    1.3250 c         1 MOL      0.716121
     82 O14        -1.8920   -2.2470    0.8360 o         1 MOL     -0.654779
     83 C27        -2.3300   -5.3790    0.0730 c3        1 MOL      0.391878
     84 C28        -2.9580   -6.7350    0.1920 c3        1 MOL     -0.392643
     85 O15        -2.6200   -4.8610   -1.2070 oh        1 MOL     -0.628001
     86 H35        -4.3080   -2.9870    0.6510 hn        1 MOL      0.289529
     87 H36        -2.7720   -4.9560    2.1430 h1        1 MOL      0.078375
     88 H37        -1.2600   -5.5390    0.1910 h1        1 MOL     -0.003947
     89 H38        -3.0910   -4.0340   -1.1030 ho        1 MOL      0.444386
     90 H39        -2.8820   -7.2330    1.1580 hc        1 MOL      0.103925
     91 H40        -3.9790   -6.6730   -0.1780 hc        1 MOL      0.103925
     92 H41        -2.4180   -7.5040   -0.3680 hc        1 MOL      0.103925
     93 N9         -0.6370   -3.7170    2.0380 n         1 MOL     -0.522955
     94 C29         0.6110   -2.9250    2.1260 c3        1 MOL     -0.034646
     95 C30         1.8190   -3.4470    1.2550 c         1 MOL      0.408362
     96 O16         2.3470   -4.5060    1.4790 o         1 MOL     -0.515075
     97 C31         1.0850   -2.8170    3.6180 c3        1 MOL      0.145063
     98 C32        -0.0570   -2.4990    4.6190 c3        1 MOL      0.224897
     99 C33         2.1590   -1.7900    3.6760 c3        1 MOL     -0.176343
    100 C34         0.4020   -2.7000    6.0790 c3        1 MOL     -0.189090
    101 H42        -0.5730   -4.6650    2.3620 hn        1 MOL      0.279988
    102 H43         0.2490   -1.9340    1.8330 h1        1 MOL      0.208352
    103 H44         1.4940   -3.7410    4.0200 hc        1 MOL     -0.014912
    104 H45        -0.9070   -3.1370    4.3850 hc        1 MOL     -0.069014
    105 H46        -0.3970   -1.4680    4.4950 hc        1 MOL     -0.069014
    106 H47         1.7920   -0.9210    3.1240 hc        1 MOL      0.008089
    107 H48         2.3700   -1.4780    4.7070 hc        1 MOL      0.008089
    108 H49         3.1350   -2.0220    3.2560 hc        1 MOL      0.008089
    109 H50        -0.3220   -2.1610    6.6970 hc        1 MOL      0.038030
    110 H51         0.3570   -3.7570    6.3420 hc        1 MOL      0.038030
    111 H52         1.4590   -2.5000    6.2250 hc        1 MOL      0.038030
    112 N10         2.2890   -2.5770    0.3380 n         1 MOL     -0.117579
    113 C35         3.4890   -2.8140   -0.4160 c3        1 MOL      0.032049
    114 C36         4.7980   -2.5360    0.3210 c         1 MOL      0.320040
    115 O17         4.8700   -1.9220    1.3600 o         1 MOL     -0.282479
    116 C37         3.4670   -2.0720   -1.7500 c3        1 MOL      0.017887
    117 C38         2.2300   -2.3580   -2.5540 c3        1 MOL     -0.463890
    118 O18         3.6440   -0.7000   -1.5490 oh        1 MOL     -0.399056
    119 H53         1.6690   -1.7990    0.1620 hn        1 MOL      0.121691
    120 H54         3.5070   -3.8830   -0.6150 h1        1 MOL      0.076815
    121 H55         4.3410   -2.3980   -2.3220 h1        1 MOL      0.020690
    122 H56         3.2530   -0.3810   -2.3580 ho        1 MOL      0.378150
    123 H57         2.0130   -3.4260   -2.4880 hc        1 MOL      0.147313
    124 H58         1.3400   -1.8200   -2.2490 hc        1 MOL      0.147313
    125 H59         2.3980   -2.2530   -3.6200 hc        1 MOL      0.147313
    126 N11         5.9040   -2.9380   -0.2410 n         1 MOL     -0.319690
    127 C39         7.3150   -2.4760   -0.0680 c3        1 MOL     -0.026758
    128 C40         7.4260   -0.9350    0.2250 c         1 MOL      0.157273
    129 O19         8.1120   -0.5050    1.2000 o         1 MOL     -0.464974
    130 C41         8.2580   -2.7940   -1.2740 c3        1 MOL      0.288174
    131 C42         8.6640   -4.2350   -1.1840 c3        1 MOL     -0.426522
    132 O20         7.6030   -2.6140   -2.5230 oh        1 MOL     -0.615079
    133 H60         5.7290   -3.5760   -1.0110 hn        1 MOL      0.226403
    134 H61         7.6640   -2.9300    0.8600 h1        1 MOL      0.118941
    135 H62         9.0830   -2.0890   -1.2020 h1        1 MOL      0.088523
    136 H63         7.0370   -3.3650   -2.7350 ho        1 MOL      0.396995
    137 H64         9.1430   -4.5230   -0.2500 hc        1 MOL      0.121879
    138 H65         7.7810   -4.8710   -1.2740 hc        1 MOL      0.121879
    139 H66         9.3940   -4.4510   -1.9600 hc        1 MOL      0.121879
    140 N12         6.7380   -0.1430   -0.5800 n         1 MOL     -0.023150
    141 C43         6.8440    1.3250   -0.4050 c3        1 MOL      0.042839
    142 C44         5.7470    1.8580    0.5510 c         1 MOL      0.233218
    143 O21         5.9680    2.9140    1.2030 o         1 MOL     -0.506125
    144 C45         6.8440    2.0700   -1.8170 c3        1 MOL     -0.179140
    145 C46         8.0070    1.5420   -2.8000 c3        1 MOL      0.073141
    146 C47         7.8740    2.3470   -4.0800 c3        1 MOL     -0.102300
    147 C48         9.0970    1.9900   -4.9610 c3        1 MOL      0.138405
    148 N13         9.1280    2.4890   -6.3210 n4        1 MOL     -0.247181
    149 H67         6.0880   -0.5520   -1.2400 hn        1 MOL      0.137431
    150 H68         7.8090    1.5830    0.0110 h1        1 MOL      0.109342
    151 H69         7.0860    3.1050   -1.5470 hc        1 MOL      0.057667
    152 H70         5.9000    1.9300   -2.3300 hc        1 MOL      0.057667
    153 H71         7.9150    0.4660   -2.9350 hc        1 MOL      0.011956
    154 H72         8.9780    1.7280   -2.3450 hc        1 MOL      0.011956
    155 H73         7.9300    3.4290   -3.9190 hc        1 MOL      0.055548
    156 H74         6.9890    2.0660   -4.6400 hc        1 MOL      0.055548
    157 H75         9.1430    0.9120   -5.0770 hx        1 MOL      0.037323
    158 H76        10.0100    2.3880   -4.5200 hx        1 MOL      0.037323
    159 H77        10.0640    2.2700   -6.6310 hn        1 MOL      0.273339
    160 H78         8.5070    1.9610   -6.9290 hn        1 MOL      0.273339
    161 H79         8.8040    3.4450   -6.3970 hn        1 MOL      0.273339
    162 N14         4.6970    1.1400    0.7710 n         1 MOL      0.061831
    163 C49         3.6800    1.5970    1.7250 c3        1 MOL     -0.051952
    164 C50         4.0710    1.3700    3.1830 c         1 MOL      0.387259
    165 O22         3.8690    2.2430    4.0060 o         1 MOL     -0.532699
    166 C51         2.3800    0.9090    1.3760 c3        1 MOL      0.146045
    167 C52         1.7920    1.6550    0.1350 c3        1 MOL     -0.395249
    168 C53         0.5420    0.9320   -0.4310 c         1 MOL      0.751337
    169 O23         0.3760   -0.3200   -0.3450 o         1 MOL     -0.713468
    170 O24        -0.4070    1.6590   -0.8010 o         1 MOL     -0.713468
    171 H80         4.5050    0.3810    0.1270 hn        1 MOL      0.076598
    172 H81         3.4420    2.6640    1.7070 h1        1 MOL      0.076404
    173 H82         1.6640    1.0690    2.1760 hc        1 MOL      0.037955
    174 H83         2.5290   -0.1510    1.1610 hc        1 MOL      0.037955
    175 H84         2.5420    1.7600   -0.6510 hc        1 MOL      0.082132
    176 H85         1.4620    2.6120    0.5480 hc        1 MOL      0.082132
    177 N15         4.6920    0.2390    3.4740 n         1 MOL      0.009047
    178 C54         5.4630    0.0230    4.7210 c3        1 MOL     -0.357082
    179 H86         5.9140   -0.9690    4.7020 h1        1 MOL      0.125683
    180 H87         6.2480    0.7750    4.7990 h1        1 MOL      0.125683
    181 H88         4.7960    0.1020    5.5800 h1        1 MOL      0.125683
    182 H89         4.8070   -0.4020    2.6980 hn        1 MOL      0.090461
    183 Ca1        -1.8650   -0.6470   -1.4180 Ca        1 MOL      1.795836
    184 O25        -0.5850   -0.5300   -4.0480 oh        1 MOL     -0.910731
    185 H90        -1.3060    0.0470   -4.2960 ho        1 MOL      0.412230
    186 H91        -0.4240   -1.0640   -4.8240 ho        1 MOL      0.412230
    187 O26        -0.8570   -3.0220   -2.4020 oh        1 MOL     -0.910731
    188 H92        -0.2830   -3.0160   -3.1660 ho        1 MOL      0.412230
    189 H93        -1.3510   -3.8490   -2.4700 ho        1 MOL      0.412230
@<TRIPOS>BOND
     1    1    2 1   
     2    1    4 1   
     3    1    5 1   
     4    1    6 1   
     5    2    3 2   
     6    2    7 1   
     7    7    8 1   
     8    7   15 1   
     9    8    9 1   
    10    8   11 1   
    11    8   16 1   
    12    9   10 2   
    13    9   19 1   
    14   11   12 1   
    15   11   17 1   
    16   11   18 1   
    17   12   13 1   
    18   12   14 1   
    19   19   20 1   
    20   19   28 1   
    21   20   21 1   
    22   20   23 1   
    23   20   29 1   
    24   21   22 2   
    25   21   41 1   
    26   23   24 1   
    27   23   30 1   
    28   23   31 1   
    29   24   25 1   
    30   24   32 1   
    31   24   33 1   
    32   25   26 1   
    33   25   34 1   
    34   25   35 1   
    35   26   27 1   
    36   26   36 1   
    37   26   37 1   
    38   27   38 1   
    39   27   39 1   
    40   27   40 1   
    41   41   42 1   
    42   41   49 1   
    43   42   43 1   
    44   42   45 1   
    45   42   50 1   
    46   43   44 2   
    47   43   53 1   
    48   45   46 1   
    49   45   51 1   
    50   45   52 1   
    51   46   47 1   
    52   46   48 1   
    53   53   54 1   
    54   53   57 1   
    55   54   55 1   
    56   54   58 1   
    57   54   59 1   
    58   55   56 2   
    59   55   60 1   
    60   60   61 1   
    61   60   68 1   
    62   61   62 1   
    63   61   64 1   
    64   61   69 1   
    65   62   63 2   
    66   62   72 1   
    67   64   65 1   
    68   64   70 1   
    69   64   71 1   
    70   65   66 1   
    71   65   67 1   
    72   72   73 1   
    73   72   76 1   
    74   73   74 1   
    75   73   77 1   
    76   73   78 1   
    77   74   75 2   
    78   74   79 1   
    79   79   80 1   
    80   79   86 1   
    81   80   81 1   
    82   80   83 1   
    83   80   87 1   
    84   81   82 2   
    85   81   93 1   
    86   83   84 1   
    87   83   85 1   
    88   83   88 1   
    89   84   90 1   
    90   84   91 1   
    91   84   92 1   
    92   85   89 1   
    93   93   94 1   
    94   93  101 1   
    95   94   95 1   
    96   94   97 1   
    97   94  102 1   
    98   95   96 2   
    99   95  112 1   
   100   97   98 1   
   101   97   99 1   
   102   97  103 1   
   103   98  100 1   
   104   98  104 1   
   105   98  105 1   
   106   99  106 1   
   107   99  107 1   
   108   99  108 1   
   109  100  109 1   
   110  100  110 1   
   111  100  111 1   
   112  112  113 1   
   113  112  119 1   
   114  113  114 1   
   115  113  116 1   
   116  113  120 1   
   117  114  115 2   
   118  114  126 1   
   119  116  117 1   
   120  116  118 1   
   121  116  121 1   
   122  117  123 1   
   123  117  124 1   
   124  117  125 1   
   125  118  122 1   
   126  126  127 1   
   127  126  133 1   
   128  127  128 1   
   129  127  130 1   
   130  127  134 1   
   131  128  129 2   
   132  128  140 1   
   133  130  131 1   
   134  130  132 1   
   135  130  135 1   
   136  131  137 1   
   137  131  138 1   
   138  131  139 1   
   139  132  136 1   
   140  140  141 1   
   141  140  149 1   
   142  141  142 1   
   143  141  144 1   
   144  141  150 1   
   145  142  143 2   
   146  142  162 1   
   147  144  145 1   
   148  144  151 1   
   149  144  152 1   
   150  145  146 1   
   151  145  153 1   
   152  145  154 1   
   153  146  147 1   
   154  146  155 1   
   155  146  156 1   
   156  147  148 1   
   157  147  157 1   
   158  147  158 1   
   159  148  159 1   
   160  148  160 1   
   161  148  161 1   
   162  162  163 1   
   163  162  171 1   
   164  163  164 1   
   165  163  166 1   
   166  163  172 1   
   167  164  165 2   
   168  164  177 1   
   169  166  167 1   
   170  166  173 1   
   171  166  174 1   
   172  167  168 1   
   173  167  175 1   
   174  167  176 1   
   175  168  169 1   
   176  168  170 1   
   177  177  178 1   
   178  177  182 1   
   179  178  179 1   
   180  178  180 1   
   181  178  181 1   
   182  184  185 1   
   183  184  186 1   
   184  187  188 1   
   185  187  189 1   
@<TRIPOS>SUBSTRUCTURE
     1 MOL         1 TEMP              0 ****  ****    0 ROOT
