@<TRIPOS>MOLECULE
MOL
  186   183     1     0     0
SMALL
resp


@<TRIPOS>ATOM
      1 C1          2.2870   -3.6110    7.0360 c3        1 MOL     -0.355377
      2 C2          1.9580   -3.2370    5.5730 c         1 MOL      0.717673
      3 O1          0.9270   -3.6610    5.0820 o         1 MOL     -0.590037
      4 H1          2.6920   -2.7390    7.5510 hc        1 MOL      0.092385
      5 H2          1.3800   -3.9410    7.5410 hc        1 MOL      0.092385
      6 H3          3.0230   -4.4150    7.0500 hc        1 MOL      0.092385
      7 N1          2.8690   -2.6550    4.8220 n         1 MOL     -0.628364
      8 C3          2.7700   -2.5220    3.3330 c3        1 MOL      0.037637
      9 C4          3.0570   -3.8060    2.5830 c         1 MOL      0.756052
     10 O2          3.9780   -4.5710    2.8420 o         1 MOL     -0.572943
     11 C5          3.7400   -1.3870    2.8450 c3        1 MOL      0.050895
     12 C6          3.5280   -0.7790    1.4560 c         1 MOL      0.678428
     13 O3          3.6440    0.4540    1.2700 o         1 MOL     -0.717391
     14 O4          3.3170   -1.5290    0.4580 o         1 MOL     -0.717391
     15 H4          3.6880   -2.3200    5.3140 hn        1 MOL      0.319471
     16 H5          1.7760   -2.1180    3.1720 h1        1 MOL      0.054311
     17 H6          4.7210   -1.8610    2.8240 hc        1 MOL      0.000991
     18 H7          3.6820   -0.5930    3.5830 hc        1 MOL      0.000991
     19 N2          2.3010   -4.0690    1.4830 n         1 MOL     -0.517292
     20 C7          2.4900   -5.3520    0.6520 c3        1 MOL     -0.051053
     21 C8          3.6070   -5.2820   -0.3490 c         1 MOL      0.541995
     22 O5          3.9500   -6.3130   -0.8530 o         1 MOL     -0.576113
     23 C9          1.1690   -5.6440   -0.1060 c3        1 MOL     -0.197161
     24 C10         0.6850   -4.5180   -1.0790 c3        1 MOL      0.046916
     25 C11        -0.5440   -4.9070   -1.9310 c3        1 MOL     -0.088969
     26 C12        -0.9270   -3.8160   -2.8790 c3        1 MOL      0.126369
     27 N3          0.1840   -3.3640   -3.7360 n4        1 MOL     -0.426242
     28 H8          1.6030   -3.4140    1.1750 hn        1 MOL      0.224131
     29 H9          2.6550   -6.1810    1.3240 h1        1 MOL      0.142711
     30 H10         0.4020   -5.7800    0.6570 hc        1 MOL      0.082886
     31 H11         1.1440   -6.6300   -0.5730 hc        1 MOL      0.082886
     32 H12         1.4670   -4.2960   -1.8100 hc        1 MOL      0.049669
     33 H13         0.4520   -3.6260   -0.5120 hc        1 MOL      0.049669
     34 H14        -1.4320   -4.9990   -1.3050 hc        1 MOL      0.042083
     35 H15        -0.4320   -5.8430   -2.4850 hc        1 MOL      0.042083
     36 H16        -1.3270   -2.9500   -2.3500 hx        1 MOL      0.011332
     37 H17        -1.6960   -4.2150   -3.5420 hx        1 MOL      0.011332
     38 H18        -0.0670   -2.6140   -4.3530 hn        1 MOL      0.321394
     39 H19         0.9840   -2.9710   -3.2510 hn        1 MOL      0.321394
     40 H20         0.3950   -4.1510   -4.3290 hn        1 MOL      0.321394
     41 N4          4.1560   -4.1220   -0.6170 n         1 MOL     -0.287804
     42 C13         5.1990   -3.8520   -1.6420 c3        1 MOL      0.072964
     43 C14         6.3030   -2.8530   -1.1900 c         1 MOL      0.365357
     44 O6          7.3560   -2.9030   -1.8550 o         1 MOL     -0.519789
     45 C15         4.5130   -3.3880   -2.8450 c3        1 MOL     -0.214103
     46 C16         3.7210   -2.1390   -2.5480 c         1 MOL      0.917490
     47 O7          4.2940   -1.1010   -2.1090 o         1 MOL     -0.851610
     48 O8          2.4560   -2.0730   -2.7280 o         1 MOL     -0.851610
     49 H21         3.7440   -3.3630   -0.0860 hn        1 MOL      0.124905
     50 H22         5.6740   -4.8200   -1.7990 h1        1 MOL      0.100441
     51 H23         3.8400   -4.1620   -3.2000 hc        1 MOL      0.058921
     52 H24         5.1780   -3.1180   -3.6630 hc        1 MOL      0.058921
     53 N5          6.0570   -1.9740   -0.1980 n         1 MOL     -0.060183
     54 C17         7.0140   -1.0280    0.4210 c3        1 MOL     -0.332454
     55 C18         7.2830    0.2120   -0.4230 c         1 MOL      0.654864
     56 O9          8.1920    0.9330   -0.0260 o         1 MOL     -0.625826
     57 H25         5.1990   -2.0850    0.3260 hn        1 MOL      0.129699
     58 H26         7.9720   -1.5240    0.5850 h1        1 MOL      0.133923
     59 H27         6.6370   -0.5760    1.3390 h1        1 MOL      0.133923
     60 N6          6.5280    0.6010   -1.4470 n         1 MOL     -0.403741
     61 C19         6.6810    1.8500   -2.1510 c3        1 MOL     -0.105526
     62 C20         6.5660    3.2380   -1.3880 c         1 MOL      0.398784
     63 O10         6.5410    4.2970   -2.0200 o         1 MOL     -0.501481
     64 C21         5.6700    1.8840   -3.3130 c3        1 MOL     -0.126954
     65 C22         4.2500    1.7730   -2.8840 c         1 MOL      0.873107
     66 O11         3.4450    1.3460   -3.7980 o         1 MOL     -0.757015
     67 O12         3.8730    2.1270   -1.7680 o         1 MOL     -0.757015
     68 H28         5.7900   -0.0920   -1.5430 hn        1 MOL      0.356053
     69 H29         7.6840    1.8440   -2.5540 h1        1 MOL      0.125636
     70 H30         5.9930    1.0590   -3.9460 hc        1 MOL      0.049270
     71 H31         5.8090    2.8240   -3.8520 hc        1 MOL      0.049270
     72 N7          6.3530    3.2820   -0.0550 n         1 MOL     -0.095405
     73 C23         6.2420    4.3480    0.8480 c3        1 MOL     -0.473610
     74 C24         4.8050    4.9570    0.9710 c         1 MOL      0.666081
     75 O13         4.5820    5.6850    1.8840 o         1 MOL     -0.584525
     76 H32         6.3120    2.3520    0.3520 hn        1 MOL      0.248695
     77 H33         6.8570    5.1950    0.5330 h1        1 MOL      0.172907
     78 H34         6.4290    3.8830    1.8160 h1        1 MOL      0.172907
     79 N8          3.8430    4.4040    0.1960 n         1 MOL     -0.354056
     80 C25         2.4370    4.8680    0.1740 c3        1 MOL     -0.130465
     81 C26         1.3320    3.7740    0.3550 c         1 MOL      0.698187
     82 O14         1.3680    2.7430   -0.3000 o         1 MOL     -0.670391
     83 C27         2.1810    5.5070   -1.1760 c3        1 MOL      0.612102
     84 C28         0.8120    6.1990   -1.2480 c3        1 MOL     -0.424487
     85 O15         3.0950    6.5570   -1.4090 oh        1 MOL     -0.676724
     86 H35         4.1320    3.6920   -0.4590 hn        1 MOL      0.257131
     87 H36         2.3180    5.6430    0.9320 h1        1 MOL      0.036819
     88 H37         2.2080    4.6820   -1.8870 h1        1 MOL     -0.011293
     89 H38         2.8730    7.3100   -0.8590 ho        1 MOL      0.396703
     90 H39         0.9170    6.9140   -2.0660 hc        1 MOL      0.085538
     91 H40         0.1420    5.4050   -1.5550 hc        1 MOL      0.085538
     92 H41         0.4620    6.5530   -0.2830 hc        1 MOL      0.085538
     93 N9          0.4210    4.0070    1.3340 n         1 MOL     -0.570675
     94 C29        -0.7960    3.2350    1.5550 c3        1 MOL      0.213570
     95 C30        -1.9410    3.7850    0.6330 c         1 MOL      0.362276
     96 O16        -2.1260    4.9960    0.4540 o         1 MOL     -0.512717
     97 C31        -1.0540    3.1880    3.1090 c3        1 MOL     -0.027947
     98 C32         0.0360    2.2680    3.6950 c3        1 MOL      0.064744
     99 C33        -2.4480    2.6840    3.5070 c3        1 MOL     -0.139057
    100 C34         0.0380    0.7780    3.3030 c3        1 MOL     -0.005054
    101 H42         0.4780    4.9210    1.7770 hn        1 MOL      0.298631
    102 H43        -0.5100    2.2330    1.2140 h1        1 MOL      0.133858
    103 H44        -0.9630    4.2340    3.3790 hc        1 MOL      0.031873
    104 H45        -0.0130    2.4000    4.7750 hc        1 MOL     -0.009940
    105 H46         1.0210    2.6380    3.4220 hc        1 MOL     -0.009940
    106 H47        -2.7310    1.7510    3.0190 hc        1 MOL      0.042443
    107 H48        -2.5640    2.6330    4.5860 hc        1 MOL      0.042443
    108 H49        -3.1820    3.4520    3.2640 hc        1 MOL      0.042443
    109 H50        -0.9150    0.3540    3.6280 hc        1 MOL      0.000570
    110 H51         0.3110    0.5790    2.2660 hc        1 MOL      0.000570
    111 H52         0.8960    0.3100    3.7940 hc        1 MOL      0.000570
    112 N10        -2.6470    2.7760    0.0880 n         1 MOL      0.187953
    113 C35        -3.9120    2.9810   -0.5470 c3        1 MOL     -0.288019
    114 C36        -5.1450    2.3070    0.2480 c         1 MOL      0.540687
    115 O17        -4.8700    1.5860    1.2110 o         1 MOL     -0.446002
    116 C37        -3.7900    2.5580   -2.0110 c3        1 MOL      0.458432
    117 C38        -2.6580    3.1750   -2.8600 c3        1 MOL     -0.254797
    118 O18        -3.5760    1.1760   -1.9510 oh        1 MOL     -0.681947
    119 H53        -2.3870    1.8090    0.2470 hn        1 MOL     -0.291280
    120 H54        -4.2000    4.0340   -0.5090 h1        1 MOL      0.080951
    121 H55        -4.6940    2.7320   -2.5850 h1        1 MOL     -0.017820
    122 H56        -2.6610    1.0090   -1.6990 ho        1 MOL      0.393906
    123 H57        -2.7810    4.2560   -2.9380 hc        1 MOL      0.069242
    124 H58        -1.6510    2.9920   -2.4580 hc        1 MOL      0.069242
    125 H59        -2.6220    2.6310   -3.8020 hc        1 MOL      0.069242
    126 N11        -6.4210    2.7240   -0.0360 n         1 MOL     -0.400649
    127 C39        -7.5710    2.0410    0.5640 c3        1 MOL     -0.150866
    128 C40        -7.4910    0.5420    0.6540 c         1 MOL      0.369169
    129 O19        -7.7430    0.0140    1.7140 o         1 MOL     -0.495310
    130 C41        -8.8730    2.4710   -0.0680 c3        1 MOL      0.308330
    131 C42        -9.3050    3.8740    0.3210 c3        1 MOL     -0.228138
    132 O20        -8.8290    2.4080   -1.4550 oh        1 MOL     -0.717203
    133 H60        -6.7030    3.4800   -0.6430 hn        1 MOL      0.317011
    134 H61        -7.5870    2.3510    1.6060 h1        1 MOL      0.152861
    135 H62        -9.6140    1.7050    0.1800 h1        1 MOL      0.053075
    136 H63        -9.5950    2.6350   -1.9770 ho        1 MOL      0.449995
    137 H64        -9.8640    4.3520   -0.4810 hc        1 MOL      0.071137
    138 H65        -9.9580    3.7350    1.1820 hc        1 MOL      0.071137
    139 H66        -8.4950    4.5320    0.6350 hc        1 MOL      0.071137
    140 N12        -6.9540   -0.1120   -0.3710 n         1 MOL     -0.124391
    141 C43        -6.8090   -1.5610   -0.3890 c3        1 MOL     -0.024635
    142 C44        -5.6870   -2.0690    0.5070 c         1 MOL      0.615451
    143 O21        -5.5160   -3.3090    0.6260 o         1 MOL     -0.580449
    144 C45        -6.8480   -2.2020   -1.8250 c3        1 MOL     -0.087640
    145 C46        -8.4480   -2.3010   -2.1140 c3        1 MOL      0.070054
    146 C47        -8.5820   -2.5470   -3.6130 c3        1 MOL     -0.215349
    147 C48        -8.1350   -3.9730   -4.1040 c3        1 MOL      0.108855
    148 N13        -8.2500   -4.0930   -5.5370 n4        1 MOL     -0.345306
    149 H67        -6.7640    0.4000   -1.2290 hn        1 MOL      0.225515
    150 H68        -7.6360   -2.0040    0.1710 h1        1 MOL      0.076410
    151 H69        -6.4200   -3.2080   -1.8390 hc        1 MOL      0.040364
    152 H70        -6.3620   -1.5480   -2.5440 hc        1 MOL      0.040364
    153 H71        -8.9800   -1.3900   -1.8400 hc        1 MOL      0.029578
    154 H72        -8.8920   -3.1390   -1.5750 hc        1 MOL      0.029578
    155 H73        -7.9910   -1.8140   -4.1520 hc        1 MOL      0.067006
    156 H74        -9.6560   -2.5510   -3.8190 hc        1 MOL      0.067006
    157 H75        -8.7360   -4.6690   -3.5320 hx        1 MOL      0.081421
    158 H76        -7.1100   -4.2420   -3.8480 hx        1 MOL      0.081421
    159 H77        -9.2050   -3.9390   -5.8040 hn        1 MOL      0.301451
    160 H78        -7.8410   -3.3500   -6.0860 hn        1 MOL      0.301451
    161 H79        -7.8750   -4.9720   -5.8830 hn        1 MOL      0.301451
    162 N14        -4.9770   -1.1900    1.1630 n         1 MOL     -0.422978
    163 C49        -3.7570   -1.5660    1.9130 c3        1 MOL     -0.158505
    164 C50        -3.9510   -1.2250    3.4480 c         1 MOL      0.667557
    165 O22        -3.5440   -1.9650    4.3040 o         1 MOL     -0.535074
    166 C51        -2.6000   -0.7590    1.3360 c3        1 MOL      0.127635
    167 C52        -2.1540   -1.3790    0.0250 c3        1 MOL      0.164462
    168 C53        -0.9880   -0.5660   -0.4500 c         1 MOL      0.702256
    169 O23        -1.2320    0.5160   -0.9690 o         1 MOL     -0.736258
    170 O24         0.2360   -1.0050   -0.3770 o         1 MOL     -0.736258
    171 H80        -5.1030   -0.2450    0.8390 hn        1 MOL      0.103596
    172 H81        -3.5930   -2.6440    1.8410 h1        1 MOL      0.132713
    173 H82        -1.7620   -0.7910    2.0310 hc        1 MOL      0.001621
    174 H83        -2.8460    0.2970    1.2240 hc        1 MOL      0.001621
    175 H84        -3.0390   -1.3130   -0.6160 hc        1 MOL     -0.038047
    176 H85        -1.8420   -2.3940    0.2440 hc        1 MOL     -0.038047
    177 N15        -4.8480   -0.2160    3.7620 n         1 MOL     -0.363461
    178 C54        -5.0970    0.2700    5.1280 c3        1 MOL     -0.060144
    179 H86        -4.3330    0.9990    5.3980 h1        1 MOL      0.056809
    180 H87        -6.0790    0.7420    5.1720 h1        1 MOL      0.056809
    181 H88        -5.0630   -0.5670    5.8240 h1        1 MOL      0.056809
    182 H89        -5.2350    0.3840    3.0490 hn        1 MOL      0.289290
    183 Ca1         2.1970    0.2100   -1.2970 Ca        1 MOL      1.776464
    184 O25         0.3170    0.6270   -3.1140 oh        1 MOL     -0.823575
    185 H90        -0.1610   -0.0220   -3.6410 ho        1 MOL      0.407919
    186 H91        -0.2660    0.8000   -2.3690 ho        1 MOL      0.407919
@<TRIPOS>BOND
     1    1    2 1   
     2    1    4 1   
     3    1    5 1   
     4    1    6 1   
     5    2    3 2   
     6    2    7 1   
     7    7    8 1   
     8    7   15 1   
     9    8    9 1   
    10    8   11 1   
    11    8   16 1   
    12    9   10 2   
    13    9   19 1   
    14   11   12 1   
    15   11   17 1   
    16   11   18 1   
    17   12   13 1   
    18   12   14 1   
    19   19   20 1   
    20   19   28 1   
    21   20   21 1   
    22   20   23 1   
    23   20   29 1   
    24   21   22 2   
    25   21   41 1   
    26   23   24 1   
    27   23   30 1   
    28   23   31 1   
    29   24   25 1   
    30   24   32 1   
    31   24   33 1   
    32   25   26 1   
    33   25   34 1   
    34   25   35 1   
    35   26   27 1   
    36   26   36 1   
    37   26   37 1   
    38   27   38 1   
    39   27   39 1   
    40   27   40 1   
    41   41   42 1   
    42   41   49 1   
    43   42   43 1   
    44   42   45 1   
    45   42   50 1   
    46   43   44 2   
    47   43   53 1   
    48   45   46 1   
    49   45   51 1   
    50   45   52 1   
    51   46   47 1   
    52   46   48 1   
    53   53   54 1   
    54   53   57 1   
    55   54   55 1   
    56   54   58 1   
    57   54   59 1   
    58   55   56 2   
    59   55   60 1   
    60   60   61 1   
    61   60   68 1   
    62   61   62 1   
    63   61   64 1   
    64   61   69 1   
    65   62   63 2   
    66   62   72 1   
    67   64   65 1   
    68   64   70 1   
    69   64   71 1   
    70   65   66 1   
    71   65   67 1   
    72   72   73 1   
    73   72   76 1   
    74   73   74 1   
    75   73   77 1   
    76   73   78 1   
    77   74   75 2   
    78   74   79 1   
    79   79   80 1   
    80   79   86 1   
    81   80   81 1   
    82   80   83 1   
    83   80   87 1   
    84   81   82 2   
    85   81   93 1   
    86   83   84 1   
    87   83   85 1   
    88   83   88 1   
    89   84   90 1   
    90   84   91 1   
    91   84   92 1   
    92   85   89 1   
    93   93   94 1   
    94   93  101 1   
    95   94   95 1   
    96   94   97 1   
    97   94  102 1   
    98   95   96 2   
    99   95  112 1   
   100   97   98 1   
   101   97   99 1   
   102   97  103 1   
   103   98  100 1   
   104   98  104 1   
   105   98  105 1   
   106   99  106 1   
   107   99  107 1   
   108   99  108 1   
   109  100  109 1   
   110  100  110 1   
   111  100  111 1   
   112  112  113 1   
   113  112  119 1   
   114  113  114 1   
   115  113  116 1   
   116  113  120 1   
   117  114  115 2   
   118  114  126 1   
   119  116  117 1   
   120  116  118 1   
   121  116  121 1   
   122  117  123 1   
   123  117  124 1   
   124  117  125 1   
   125  118  122 1   
   126  126  127 1   
   127  126  133 1   
   128  127  128 1   
   129  127  130 1   
   130  127  134 1   
   131  128  129 2   
   132  128  140 1   
   133  130  131 1   
   134  130  132 1   
   135  130  135 1   
   136  131  137 1   
   137  131  138 1   
   138  131  139 1   
   139  132  136 1   
   140  140  141 1   
   141  140  149 1   
   142  141  142 1   
   143  141  144 1   
   144  141  150 1   
   145  142  143 2   
   146  142  162 1   
   147  144  145 1   
   148  144  151 1   
   149  144  152 1   
   150  145  146 1   
   151  145  153 1   
   152  145  154 1   
   153  146  147 1   
   154  146  155 1   
   155  146  156 1   
   156  147  148 1   
   157  147  157 1   
   158  147  158 1   
   159  148  159 1   
   160  148  160 1   
   161  148  161 1   
   162  162  163 1   
   163  162  171 1   
   164  163  164 1   
   165  163  166 1   
   166  163  172 1   
   167  164  165 2   
   168  164  177 1   
   169  166  167 1   
   170  166  173 1   
   171  166  174 1   
   172  167  168 1   
   173  167  175 1   
   174  167  176 1   
   175  168  169 1   
   176  168  170 1   
   177  177  178 1   
   178  177  182 1   
   179  178  179 1   
   180  178  180 1   
   181  178  181 1   
   182  184  185 1   
   183  184  186 1   
@<TRIPOS>SUBSTRUCTURE
     1 MOL         1 TEMP              0 ****  ****    0 ROOT
