@<TRIPOS>MOLECULE
MOL
  179   176     1     0     0
SMALL
resp


@<TRIPOS>ATOM
      1 C1          1.7530    2.6840    6.0820 c3        1 MOL     -0.218193
      2 C2          1.4220    2.2760    4.6560 c         1 MOL      0.773631
      3 O1          2.3380    2.3090    3.8150 o         1 MOL     -0.610470
      4 H1          1.1080    3.5100    6.3820 hc        1 MOL      0.052313
      5 H2          1.5910    1.8370    6.7490 hc        1 MOL      0.052313
      6 H3          2.7950    2.9980    6.1380 hc        1 MOL      0.052313
      7 N1          0.1580    1.9710    4.3380 n         1 MOL     -0.630917
      8 C3         -0.4390    1.8520    3.0400 c3        1 MOL     -0.009870
      9 C4         -0.3930    3.2840    2.4810 c         1 MOL      0.621544
     10 O2         -0.7540    4.2560    3.1940 o         1 MOL     -0.584314
     11 C5         -1.9390    1.3620    3.1730 c3        1 MOL      0.074040
     12 C6         -2.5960    1.0800    1.7570 c         1 MOL      0.711873
     13 O3         -1.9970    1.3730    0.7080 o         1 MOL     -0.794229
     14 O4         -3.8560    0.7770    1.6910 o         1 MOL     -0.794229
     15 H4         -0.4570    1.9190    5.1400 hn        1 MOL      0.310686
     16 H5          0.1330    1.1350    2.4540 h1        1 MOL      0.016685
     17 H6         -2.5180    2.0960    3.7410 hc        1 MOL      0.013671
     18 H7         -1.9950    0.4720    3.7970 hc        1 MOL      0.013671
     19 N2          0.0270    3.5620    1.2410 n         1 MOL     -0.331631
     20 C7          0.3050    4.8780    0.7460 c3        1 MOL      0.078011
     21 C8         -0.8950    5.5150    0.1520 c         1 MOL      0.402967
     22 O5         -0.9970    6.7300    0.2330 o         1 MOL     -0.557773
     23 C9          1.5040    4.8790   -0.3050 c3        1 MOL     -0.018001
     24 C10         2.3810    6.1230   -0.1310 c3        1 MOL      0.107040
     25 C11         3.5440    6.1010   -1.1550 c3        1 MOL      0.019943
     26 C12         4.5020    7.3370   -1.0340 c3        1 MOL      0.123228
     27 N3          5.5420    7.2720   -2.1070 n4        1 MOL     -0.412817
     28 H8          0.2560    2.7740    0.6420 hn        1 MOL      0.180786
     29 H9          0.5680    5.5670    1.5510 h1        1 MOL      0.064508
     30 H10         0.9860    4.8060   -1.2560 hc        1 MOL      0.000923
     31 H11         2.1360    4.0130   -0.1110 hc        1 MOL      0.000923
     32 H12         2.6450    6.1810    0.9300 hc        1 MOL     -0.006559
     33 H13         1.7590    6.9890   -0.3240 hc        1 MOL     -0.006559
     34 H14         3.1390    6.1630   -2.1630 hc        1 MOL     -0.002826
     35 H15         4.1370    5.1920   -1.0820 hc        1 MOL     -0.002826
     36 H16         4.9180    7.3820   -0.0260 hx        1 MOL      0.055422
     37 H17         3.8500    8.2060   -1.0680 hx        1 MOL      0.055422
     38 H18         6.0320    6.3950   -2.1390 hn        1 MOL      0.338336
     39 H19         5.1740    7.3630   -3.0430 hn        1 MOL      0.338336
     40 H20         6.2570    7.9650   -1.9470 hn        1 MOL      0.338336
     41 N4         -1.7060    4.7180   -0.5450 n         1 MOL     -0.041110
     42 C13        -2.8320    5.2040   -1.3810 c3        1 MOL     -0.209063
     43 C14        -4.2170    4.7770   -0.7670 c         1 MOL      0.505818
     44 O6         -5.2620    5.1850   -1.3240 o         1 MOL     -0.518361
     45 C15        -2.7270    4.6520   -2.8580 c3        1 MOL      0.069140
     46 C16        -2.7500    3.1240   -3.0400 c         1 MOL      0.516657
     47 O7         -3.1170    2.6720   -4.1530 o         1 MOL     -0.675036
     48 O8         -2.5480    2.4540   -1.9890 o         1 MOL     -0.675036
     49 H21        -1.4870    3.7340   -0.5370 hn        1 MOL      0.103317
     50 H22        -2.9300    6.2880   -1.4360 h1        1 MOL      0.121342
     51 H23        -1.8580    5.0630   -3.3770 hc        1 MOL      0.004329
     52 H24        -3.5780    5.0230   -3.4260 hc        1 MOL      0.004329
     53 N5         -4.2410    3.9930    0.3510 n         1 MOL     -0.267311
     54 C17        -5.4530    3.6510    1.1380 c3        1 MOL     -0.128562
     55 C18        -6.3150    2.6890    0.4440 c         1 MOL      0.447283
     56 O9         -7.5970    2.8170    0.5070 o         1 MOL     -0.544809
     57 H25        -3.3180    3.7730    0.6960 hn        1 MOL      0.190408
     58 H26        -6.0200    4.5860    1.1990 h1        1 MOL      0.103080
     59 H27        -5.1630    3.4040    2.1610 h1        1 MOL      0.103080
     60 N6         -5.7340    1.7880   -0.3630 n         1 MOL     -0.040241
     61 C19        -6.5110    0.8390   -1.1350 c3        1 MOL     -0.462717
     62 C20        -6.9320   -0.5380   -0.4170 c         1 MOL      0.627609
     63 O10        -7.9130   -1.2000   -0.7340 o         1 MOL     -0.535909
     64 C21        -5.8830    0.6400   -2.5210 c3        1 MOL     -0.012083
     65 C22        -4.8150   -0.4910   -2.5440 c         1 MOL      0.429541
     66 N7         -4.7340   -1.3470   -3.5020 n         1 MOL     -0.623291
     67 O11        -4.0720   -0.6440   -1.6070 o         1 MOL     -0.638208
     68 H28        -4.7310    1.8020   -0.4560 hn        1 MOL      0.258118
     69 H29        -7.4870    1.2510   -1.4050 h1        1 MOL      0.184285
     70 H30        -5.4470    1.4770   -3.0530 hc        1 MOL      0.095173
     71 H31        -6.6590    0.3300   -3.2290 hc        1 MOL      0.095173
     72 H32        -5.2580   -1.2720   -4.3640 hn        1 MOL      0.331033
     73 H33        -4.1470   -2.1620   -3.3940 hn        1 MOL      0.331033
     74 N8         -6.2430   -0.7210    0.7050 n         1 MOL     -0.259540
     75 C23        -6.3470   -1.8820    1.5860 c3        1 MOL     -0.302793
     76 C24        -5.1570   -2.8860    1.7320 c         1 MOL      0.753028
     77 O12        -5.2340   -3.7760    2.5810 o         1 MOL     -0.588950
     78 H34        -5.5200   -0.0840    0.9860 hn        1 MOL      0.281781
     79 H35        -7.2620   -2.4410    1.4080 h1        1 MOL      0.122181
     80 H36        -6.3820   -1.4070    2.5680 h1        1 MOL      0.122181
     81 N9         -4.0750   -2.5370    0.9890 n         1 MOL     -0.676336
     82 C25        -2.8750   -3.4390    0.8610 c3        1 MOL      0.187507
     83 C26        -1.6520   -2.5880    0.9150 c         1 MOL      0.556545
     84 O13        -1.4800   -1.5850    0.2680 o         1 MOL     -0.644388
     85 C27        -2.9100   -4.2150   -0.4140 c3        1 MOL      0.051230
     86 C28        -4.0260   -5.1440   -0.5540 ca        1 MOL     -0.025667
     87 C29        -5.1910   -4.6540   -1.1230 ca        1 MOL     -0.173340
     88 C30        -4.0270   -6.4160    0.0420 ca        1 MOL     -0.173340
     89 C31        -6.3960   -5.4220   -1.1080 ca        1 MOL     -0.229236
     90 C32        -5.2230   -7.2190    0.1200 ca        1 MOL     -0.229236
     91 C33        -6.3870   -6.6940   -0.5110 ca        1 MOL      0.349652
     92 O14        -7.5040   -7.4550   -0.5870 oh        1 MOL     -0.495587
     93 H37        -4.1140   -1.6820    0.4420 hn        1 MOL      0.495609
     94 H38        -2.8750   -4.1630    1.6800 h1        1 MOL      0.053353
     95 H39        -2.0130   -4.8230   -0.5490 hc        1 MOL      0.002718
     96 H40        -2.9350   -3.4610   -1.2040 hc        1 MOL      0.002718
     97 H41        -5.1130   -3.7040   -1.6440 ha        1 MOL      0.128805
     98 H42        -3.1160   -6.7000    0.5570 ha        1 MOL      0.128805
     99 H43        -7.2890   -5.0150   -1.5510 ha        1 MOL      0.145724
    100 H44        -5.2970   -8.2460    0.4490 ha        1 MOL      0.145724
    101 H45        -7.5000   -8.1840    0.0460 ho        1 MOL      0.367679
    102 N10        -0.6130   -3.1260    1.5610 n         1 MOL     -0.615043
    103 C34         0.7490   -2.6560    1.5700 c3        1 MOL      0.097872
    104 C35         1.6130   -3.5010    0.6080 c         1 MOL      0.585886
    105 O15         1.7850   -4.7110    0.8680 o         1 MOL     -0.570804
    106 C36         1.3730   -2.5290    2.9960 c3        1 MOL      0.027301
    107 C37         0.7650   -1.3780    3.7310 c3        1 MOL      0.081115
    108 C38         2.8900   -2.2890    2.9320 c3        1 MOL     -0.044390
    109 C39         0.9610   -1.3560    5.2770 c3        1 MOL     -0.109101
    110 H46        -0.8220   -3.9740    2.0760 hn        1 MOL      0.310425
    111 H47         0.7200   -1.6600    1.1340 h1        1 MOL      0.101193
    112 H48         1.3220   -3.4630    3.5390 hc        1 MOL      0.031999
    113 H49        -0.3130   -1.4390    3.5640 hc        1 MOL      0.001180
    114 H50         1.1280   -0.4420    3.3220 hc        1 MOL      0.001180
    115 H51         3.0730   -1.2820    2.5610 hc        1 MOL      0.002152
    116 H52         3.3490   -2.2460    3.9250 hc        1 MOL      0.002152
    117 H53         3.4310   -3.0720    2.4030 hc        1 MOL      0.002152
    118 H54         0.2570   -0.7540    5.8590 hc        1 MOL      0.020358
    119 H55         0.7630   -2.3510    5.6710 hc        1 MOL      0.020358
    120 H56         1.9540   -1.0200    5.5790 hc        1 MOL      0.020358
    121 N11         2.3000   -2.9010   -0.3610 n         1 MOL     -0.307344
    122 C40         3.3170   -3.6380   -1.1010 c3        1 MOL     -0.009801
    123 C41         4.7660   -3.6350   -0.5720 c         1 MOL      0.412397
    124 O16         5.1600   -2.7780    0.2350 o         1 MOL     -0.291991
    125 C42         3.2870   -3.0370   -2.4840 c3        1 MOL     -0.125314
    126 O17         3.7810   -1.7500   -2.5480 oh        1 MOL     -0.457968
    127 H57         2.2470   -1.8910   -0.3830 hn        1 MOL      0.127095
    128 H58         2.9170   -4.6400   -1.2680 h1        1 MOL      0.093654
    129 H59         2.2700   -3.1290   -2.8700 h1        1 MOL      0.088795
    130 H60         3.9730   -3.5960   -3.1280 h1        1 MOL      0.088795
    131 H61         3.1350   -1.1600   -2.9500 ho        1 MOL      0.392882
    132 N12         5.6650   -4.5600   -1.0030 n         1 MOL     -0.456881
    133 C43         7.0330   -4.5390   -0.5370 c3        1 MOL      0.171674
    134 C44         7.7820   -3.2370   -0.9400 c         1 MOL      0.480080
    135 O18         8.7120   -2.8640   -0.2330 o         1 MOL     -0.530815
    136 C45         7.8240   -5.7190   -0.9350 c3        1 MOL     -0.379334
    137 H62         5.4000   -5.1390   -1.7880 hn        1 MOL      0.293279
    138 H63         6.9380   -4.4800    0.5450 h1        1 MOL      0.097339
    139 H64         7.5880   -5.9290   -1.9840 hc        1 MOL      0.113469
    140 H65         8.9010   -5.5730   -0.8210 hc        1 MOL      0.113469
    141 H66         7.5950   -6.5880   -0.3120 hc        1 MOL      0.113469
    142 N13         7.4500   -2.5300   -2.0000 n         1 MOL     -0.494363
    143 C46         7.9950   -1.2210   -2.2860 c3        1 MOL      0.302749
    144 C47         7.3120   -0.1450   -1.3650 c         1 MOL      0.283368
    145 O19         8.0220    0.7620   -0.9490 o         1 MOL     -0.495425
    146 C48         7.8640   -0.7940   -3.7330 c3        1 MOL     -0.225083
    147 H67         6.6950   -2.9090   -2.5470 hn        1 MOL      0.303575
    148 H68         9.0520   -1.1090   -2.0590 h1        1 MOL      0.061323
    149 H69         6.8050   -0.6890   -3.9420 hc        1 MOL      0.048786
    150 H70         8.3410    0.1800   -3.8230 hc        1 MOL      0.048786
    151 H71         8.2450   -1.5730   -4.3880 hc        1 MOL      0.048786
    152 N14         6.0260   -0.2440   -1.0090 n         1 MOL      0.023676
    153 C49         5.5020    0.7260   -0.1210 c3        1 MOL     -0.207089
    154 C50         6.0760    0.5750    1.2970 c         1 MOL      0.391061
    155 O20         6.3640    1.5730    1.9650 o         1 MOL     -0.534689
    156 C51         3.9440    0.6550    0.0000 c3        1 MOL      0.280830
    157 C52         3.1790    1.2460   -1.1960 c3        1 MOL     -0.113158
    158 C53         1.6780    0.8600   -1.0550 c         1 MOL      0.724761
    159 O21         0.8800    1.7060   -0.6250 o         1 MOL     -0.710784
    160 O22         1.2260   -0.2640   -1.3880 o         1 MOL     -0.710784
    161 H72         5.4110   -0.9470   -1.3820 hn        1 MOL      0.017599
    162 H73         5.7250    1.7230   -0.4880 h1        1 MOL      0.097563
    163 H74         3.7010    1.2110    0.8990 hc        1 MOL      0.009198
    164 H75         3.6670   -0.3990    0.1080 hc        1 MOL      0.009198
    165 H76         3.6800    0.8090   -2.0560 hc        1 MOL     -0.024288
    166 H77         3.3280    2.3210   -1.1000 hc        1 MOL     -0.024288
    167 N15         6.3960   -0.6740    1.7440 n         1 MOL      0.064818
    168 C54         6.9050   -1.0220    3.0730 c3        1 MOL     -0.334617
    169 H78         6.2430   -0.6070    3.8340 h1        1 MOL      0.122050
    170 H79         6.9420   -2.1060    3.1760 h1        1 MOL      0.122050
    171 H80         7.9060   -0.6090    3.2000 h1        1 MOL      0.122050
    172 H81         6.1320   -1.3780    1.0640 hn        1 MOL     -0.030546
    173 Ca1        -1.2600    0.3260   -1.4540 Ca        1 MOL      1.774466
    174 O23        -0.0440    1.6720   -3.6360 oh        1 MOL     -0.849597
    175 H82         0.0620    2.6230   -3.6410 ho        1 MOL      0.423194
    176 H83        -0.7050    1.5040   -4.3020 ho        1 MOL      0.423194
    177 O24        -0.8080   -1.5330   -3.3520 oh        1 MOL     -0.849597
    178 H84        -0.4440   -1.4160   -4.2300 ho        1 MOL      0.423194
    179 H85        -0.6650   -2.4550   -3.1490 ho        1 MOL      0.423194
@<TRIPOS>BOND
     1    1    2 1   
     2    1    4 1   
     3    1    5 1   
     4    1    6 1   
     5    2    3 2   
     6    2    7 1   
     7    7    8 1   
     8    7   15 1   
     9    8    9 1   
    10    8   11 1   
    11    8   16 1   
    12    9   10 2   
    13    9   19 1   
    14   11   12 1   
    15   11   17 1   
    16   11   18 1   
    17   12   13 1   
    18   12   14 1   
    19   19   20 1   
    20   19   28 1   
    21   20   21 1   
    22   20   23 1   
    23   20   29 1   
    24   21   22 2   
    25   21   41 1   
    26   23   24 1   
    27   23   30 1   
    28   23   31 1   
    29   24   25 1   
    30   24   32 1   
    31   24   33 1   
    32   25   26 1   
    33   25   34 1   
    34   25   35 1   
    35   26   27 1   
    36   26   36 1   
    37   26   37 1   
    38   27   38 1   
    39   27   39 1   
    40   27   40 1   
    41   41   42 1   
    42   41   49 1   
    43   42   43 1   
    44   42   45 1   
    45   42   50 1   
    46   43   44 2   
    47   43   53 1   
    48   45   46 1   
    49   45   51 1   
    50   45   52 1   
    51   46   47 1   
    52   46   48 1   
    53   53   54 1   
    54   53   57 1   
    55   54   55 1   
    56   54   58 1   
    57   54   59 1   
    58   55   56 2   
    59   55   60 1   
    60   60   61 1   
    61   60   68 1   
    62   61   62 1   
    63   61   64 1   
    64   61   69 1   
    65   62   63 2   
    66   62   74 1   
    67   64   65 1   
    68   64   70 1   
    69   64   71 1   
    70   65   66 1   
    71   65   67 2   
    72   66   72 1   
    73   66   73 1   
    74   74   75 1   
    75   74   78 1   
    76   75   76 1   
    77   75   79 1   
    78   75   80 1   
    79   76   77 2   
    80   76   81 1   
    81   81   82 1   
    82   81   93 1   
    83   82   83 1   
    84   82   85 1   
    85   82   94 1   
    86   83   84 2   
    87   83  102 1   
    88   85   86 1   
    89   85   95 1   
    90   85   96 1   
    91   86   87 ar  
    92   86   88 ar  
    93   87   89 ar  
    94   87   97 1   
    95   88   90 ar  
    96   88   98 1   
    97   89   91 ar  
    98   89   99 1   
    99   90   91 ar  
   100   90  100 1   
   101   91   92 1   
   102   92  101 1   
   103  102  103 1   
   104  102  110 1   
   105  103  104 1   
   106  103  106 1   
   107  103  111 1   
   108  104  105 2   
   109  104  121 1   
   110  106  107 1   
   111  106  108 1   
   112  106  112 1   
   113  107  109 1   
   114  107  113 1   
   115  107  114 1   
   116  108  115 1   
   117  108  116 1   
   118  108  117 1   
   119  109  118 1   
   120  109  119 1   
   121  109  120 1   
   122  121  122 1   
   123  121  127 1   
   124  122  123 1   
   125  122  125 1   
   126  122  128 1   
   127  123  124 2   
   128  123  132 1   
   129  125  126 1   
   130  125  129 1   
   131  125  130 1   
   132  126  131 1   
   133  132  133 1   
   134  132  137 1   
   135  133  134 1   
   136  133  136 1   
   137  133  138 1   
   138  134  135 2   
   139  134  142 1   
   140  136  139 1   
   141  136  140 1   
   142  136  141 1   
   143  142  143 1   
   144  142  147 1   
   145  143  144 1   
   146  143  146 1   
   147  143  148 1   
   148  144  145 2   
   149  144  152 1   
   150  146  149 1   
   151  146  150 1   
   152  146  151 1   
   153  152  153 1   
   154  152  161 1   
   155  153  154 1   
   156  153  156 1   
   157  153  162 1   
   158  154  155 2   
   159  154  167 1   
   160  156  157 1   
   161  156  163 1   
   162  156  164 1   
   163  157  158 1   
   164  157  165 1   
   165  157  166 1   
   166  158  159 1   
   167  158  160 1   
   168  167  168 1   
   169  167  172 1   
   170  168  169 1   
   171  168  170 1   
   172  168  171 1   
   173  174  175 1   
   174  174  176 1   
   175  177  178 1   
   176  177  179 1   
@<TRIPOS>SUBSTRUCTURE
     1 MOL         1 TEMP              0 ****  ****    0 ROOT
