@<TRIPOS>MOLECULE
MOL
  172   171     1     0     0
SMALL
resp


@<TRIPOS>ATOM
      1 C1          0.4660   -4.1530    5.3820 c3        1 MOL     -0.380236
      2 C2          0.9790   -3.5430    4.0810 c         1 MOL      0.668079
      3 O1          0.2110   -3.7230    3.1360 o         1 MOL     -0.566387
      4 H1         -0.6210   -4.2230    5.3460 hc        1 MOL      0.090504
      5 H2          0.8900   -5.1490    5.5080 hc        1 MOL      0.090504
      6 H3          0.7620   -3.5230    6.2210 hc        1 MOL      0.090504
      7 N1          2.1000   -2.8800    3.9880 n         1 MOL     -0.439129
      8 C3          2.5250   -2.2380    2.7350 c3        1 MOL      0.008897
      9 C4          3.0740   -3.3030    1.7830 c         1 MOL      0.293884
     10 O2          4.2580   -3.7120    1.8460 o         1 MOL     -0.459882
     11 C5          3.6540   -1.1760    3.0070 c3        1 MOL     -0.176323
     12 C6          4.0710   -0.3230    1.7540 c         1 MOL      0.645821
     13 O3          5.0530    0.3720    1.8920 o         1 MOL     -0.664916
     14 O4          3.4660   -0.4220    0.6460 o         1 MOL     -0.664916
     15 H4          2.5610   -2.6640    4.8720 hn        1 MOL      0.282029
     16 H5          1.6440   -1.7750    2.2870 h1        1 MOL      0.087793
     17 H6          4.5640   -1.6690    3.3650 hc        1 MOL      0.071834
     18 H7          3.3680   -0.5680    3.8640 hc        1 MOL      0.071834
     19 N2          2.1610   -3.8620    0.9840 n         1 MOL     -0.083937
     20 C7          2.3150   -5.1220    0.3130 c3        1 MOL      0.144093
     21 C8          3.5730   -5.1330   -0.6520 c         1 MOL      0.317362
     22 O5          4.1360   -6.1790   -1.0250 o         1 MOL     -0.594063
     23 C9          1.0110   -5.4250   -0.4530 c3        1 MOL     -0.185767
     24 H8          1.2750   -3.3950    0.8410 hn        1 MOL      0.167352
     25 H9          2.4840   -5.8950    1.0650 h1        1 MOL      0.026239
     26 H10         0.1470   -5.1230    0.1340 hc        1 MOL      0.050424
     27 H11         0.9920   -4.8820   -1.3960 hc        1 MOL      0.050424
     28 H12         0.9730   -6.4930   -0.6920 hc        1 MOL      0.050424
     29 N3          3.9410   -4.0380   -1.2230 n         1 MOL     -0.021553
     30 C10         5.0400   -3.8520   -2.1640 c3        1 MOL      0.102672
     31 C11         6.2000   -3.0390   -1.5260 c         1 MOL      0.267684
     32 O6          7.2070   -2.8510   -2.2810 o         1 MOL     -0.541691
     33 C12         4.5750   -3.2270   -3.4560 c3        1 MOL     -0.278354
     34 C13         3.8670   -1.8360   -3.3910 c         1 MOL      0.884962
     35 O7          3.6490   -1.2520   -4.4700 o         1 MOL     -0.763425
     36 O8          3.4670   -1.3830   -2.2950 o         1 MOL     -0.763425
     37 H13         3.2420   -3.3250   -1.0410 hn        1 MOL      0.124829
     38 H14         5.5090   -4.8000   -2.4470 h1        1 MOL      0.086922
     39 H15         3.9330   -3.9260   -3.9950 hc        1 MOL      0.059845
     40 H16         5.4280   -3.0120   -4.1060 hc        1 MOL      0.059845
     41 N4          5.9950   -2.4180   -0.3890 n         1 MOL      0.184633
     42 C14         7.0690   -1.7880    0.4200 c3        1 MOL     -0.271896
     43 C15         7.4230   -0.4580   -0.1550 c         1 MOL      0.542370
     44 O9          8.5630   -0.0200   -0.0960 o         1 MOL     -0.608591
     45 H17         5.1120   -2.4550    0.1050 hn        1 MOL     -0.176252
     46 H18         8.0240   -2.3190    0.3470 h1        1 MOL      0.133720
     47 H19         6.7870   -1.6170    1.4560 h1        1 MOL      0.133720
     48 N5          6.5310    0.1940   -0.8630 n         1 MOL     -0.168340
     49 C16         6.7760    1.4130   -1.6530 c3        1 MOL     -0.037520
     50 C17         6.7620    2.7010   -0.7650 c         1 MOL      0.428133
     51 O10         7.1650    3.7660   -1.1790 o         1 MOL     -0.544822
     52 C18         5.8260    1.4740   -2.8730 c3        1 MOL     -0.192837
     53 C19         4.4870    2.1390   -2.7260 c         1 MOL      0.705696
     54 N6          4.1400    2.8840   -3.7270 n         1 MOL     -0.753757
     55 O11         3.7150    1.9900   -1.7350 o         1 MOL     -0.715065
     56 H20         5.5860   -0.1590   -0.8760 hn        1 MOL      0.138473
     57 H21         7.8020    1.3490   -2.0150 h1        1 MOL      0.114823
     58 H22         5.7260    0.4560   -3.2670 hc        1 MOL      0.072368
     59 H23         6.3320    2.0020   -3.6840 hc        1 MOL      0.072368
     60 H24         4.8300    2.9650   -4.4650 hn        1 MOL      0.371859
     61 H25         3.3180    3.4530   -3.6320 hn        1 MOL      0.371859
     62 N7          6.2900    2.5740    0.5010 n         1 MOL     -0.193698
     63 C20         6.3160    3.6720    1.4920 c3        1 MOL     -0.087789
     64 C21         4.9730    4.2720    1.7990 c         1 MOL      0.617660
     65 O12         4.8840    5.1380    2.6860 o         1 MOL     -0.612612
     66 H26         6.0330    1.6630    0.8380 hn        1 MOL      0.231217
     67 H27         6.9600    4.4780    1.1450 h1        1 MOL      0.072834
     68 H28         6.7410    3.3520    2.4430 h1        1 MOL      0.072834
     69 N8          3.8240    3.7710    1.2480 n         1 MOL     -0.376199
     70 C22         2.4570    4.3230    1.3980 c3        1 MOL     -0.094448
     71 C23         1.4290    3.2670    1.3850 c         1 MOL      0.655820
     72 O13         1.6000    2.2970    0.6010 o         1 MOL     -0.675543
     73 C24         2.0510    5.3060    0.3020 c3        1 MOL      0.206676
     74 C25         2.4600    6.7220    0.6510 c3        1 MOL     -0.364722
     75 O14         2.8740    5.2490   -0.8490 oh        1 MOL     -0.537377
     76 H29         3.9330    2.9340    0.6960 hn        1 MOL      0.309419
     77 H30         2.3600    4.8410    2.3510 h1        1 MOL      0.099972
     78 H31         1.0030    5.2200    0.0140 h1        1 MOL      0.076814
     79 H32         2.5240    4.6230   -1.4870 ho        1 MOL      0.371229
     80 H33         2.0060    7.0880    1.5700 hc        1 MOL      0.097354
     81 H34         3.5330    6.8640    0.7350 hc        1 MOL      0.097354
     82 H35         2.1770    7.4490   -0.1080 hc        1 MOL      0.097354
     83 N9          0.3000    3.4460    2.1000 n         1 MOL     -0.531089
     84 C26        -0.7910    2.5060    2.0670 c3        1 MOL      0.126252
     85 C27        -1.9590    2.9680    1.1750 c         1 MOL      0.446942
     86 O15        -2.5070    4.0600    1.3050 o         1 MOL     -0.572331
     87 C28        -1.4340    2.1730    3.4330 c3        1 MOL      0.038151
     88 C29        -0.3990    1.7120    4.4930 c3        1 MOL      0.186958
     89 C30        -2.6110    1.0920    3.3910 c3        1 MOL     -0.137538
     90 C31        -0.9970    1.8420    5.8350 c3        1 MOL     -0.233152
     91 H36         0.2950    4.2880    2.6500 hn        1 MOL      0.288704
     92 H37        -0.4250    1.5700    1.6450 h1        1 MOL      0.072222
     93 H38        -1.9100    3.0970    3.7320 hc        1 MOL     -0.002519
     94 H39         0.5370    2.2650    4.4520 hc        1 MOL     -0.038173
     95 H40        -0.0910    0.6840    4.3360 hc        1 MOL     -0.038173
     96 H41        -3.3830    1.4950    2.7320 hc        1 MOL      0.044010
     97 H42        -2.1810    0.1710    3.0010 hc        1 MOL      0.044010
     98 H43        -3.1960    1.0180    4.3160 hc        1 MOL      0.044010
     99 H44        -0.2190    1.4660    6.5010 hc        1 MOL      0.035230
    100 H45        -1.3030    2.8560    6.0840 hc        1 MOL      0.035230
    101 H46        -1.7800    1.0990    5.9920 hc        1 MOL      0.035230
    102 N10        -2.3010    2.0480    0.1880 n         1 MOL     -0.055685
    103 C32        -3.2680    2.2230   -0.9600 c3        1 MOL     -0.066482
    104 C33        -4.6050    1.4890   -0.6570 c         1 MOL      0.425330
    105 O16        -4.5830    0.8460    0.3600 o         1 MOL     -0.378885
    106 C34        -2.6350    1.5550   -2.2060 c3        1 MOL     -0.087267
    107 C35        -1.2460    2.1790   -2.4680 c         1 MOL      0.627443
    108 O17        -0.2170    1.7740   -1.8110 o         1 MOL     -0.669030
    109 O18        -1.1270    2.8940   -3.4620 o         1 MOL     -0.669030
    110 H47        -1.6570    1.2690    0.1250 hn        1 MOL      0.001722
    111 H48        -3.5250    3.2560   -1.1670 h1        1 MOL      0.074792
    112 H49        -3.3190    1.6090   -3.0580 hc        1 MOL      0.040280
    113 H50        -2.5090    0.4750   -2.1100 hc        1 MOL      0.040280
    114 N11        -5.6110    1.7530   -1.4430 n         1 MOL     -0.536197
    115 C36        -6.9560    1.2800   -1.1020 c3        1 MOL      0.241532
    116 C37        -7.0780   -0.2240   -1.0460 c         1 MOL      0.335948
    117 O19        -7.6830   -0.6440   -0.0210 o         1 MOL     -0.490483
    118 C38        -7.9680    2.0720   -2.0040 c3        1 MOL     -0.143094
    119 C39        -9.3830    1.8110   -1.4810 ca        1 MOL      0.109320
    120 C40        -9.7340    2.2540   -0.1940 ca        1 MOL     -0.187981
    121 C41       -10.3580    1.1410   -2.2160 ca        1 MOL     -0.187981
    122 C42       -10.9320    1.9160    0.3430 ca        1 MOL     -0.087883
    123 C43       -11.6210    0.8200   -1.7190 ca        1 MOL     -0.087883
    124 C44       -11.9260    1.2480   -0.4150 ca        1 MOL     -0.120136
    125 H51        -5.5460    2.3790   -2.2210 hn        1 MOL      0.320749
    126 H52        -7.1590    1.6720   -0.1060 h1        1 MOL      0.093737
    127 H53        -7.8280    1.7070   -3.0220 hc        1 MOL      0.052948
    128 H54        -7.8480    3.1500   -2.0890 hc        1 MOL      0.052948
    129 H55        -9.0610    2.7760    0.4640 ha        1 MOL      0.115260
    130 H56       -10.1910    0.7660   -3.2190 ha        1 MOL      0.115260
    131 H57       -11.1070    2.1030    1.3930 ha        1 MOL      0.109320
    132 H58       -12.3340    0.2780   -2.3120 ha        1 MOL      0.109320
    133 H59       -12.9180    1.1700    0.0090 ha        1 MOL      0.091345
    134 N12        -6.5580   -1.1390   -1.9120 n         1 MOL     -0.129603
    135 C45        -6.6730   -2.6070   -1.6310 c3        1 MOL     -0.103665
    136 C46        -5.7530   -3.0000   -0.4240 c         1 MOL      0.379535
    137 O20        -5.8450   -4.1400   -0.0080 o         1 MOL     -0.500708
    138 C47        -6.2030   -3.2760   -2.9310 c3        1 MOL     -0.066667
    139 C48        -5.2750   -2.2670   -3.5760 c3        1 MOL      0.033111
    140 C49        -5.6290   -0.8680   -2.9480 c3        1 MOL     -0.019089
    141 H60        -7.7070   -2.9020   -1.4460 h1        1 MOL      0.123959
    142 H61        -5.5880   -4.1620   -2.7580 hc        1 MOL      0.046653
    143 H62        -7.0290   -3.5820   -3.5890 hc        1 MOL      0.046653
    144 H63        -4.2460   -2.4710   -3.3060 hc        1 MOL      0.022887
    145 H64        -5.3820   -2.3110   -4.6630 hc        1 MOL      0.022887
    146 H65        -4.6920   -0.3970   -2.6290 h1        1 MOL      0.019239
    147 H66        -6.0390   -0.2960   -3.7740 h1        1 MOL      0.019239
    148 N13        -4.7300   -2.1940    0.0310 n         1 MOL      0.002310
    149 C50        -3.9660   -2.5520    1.2430 c3        1 MOL     -0.307582
    150 C51        -4.6960   -2.1910    2.4670 c         1 MOL      0.541594
    151 O21        -4.6550   -2.9580    3.4890 o         1 MOL     -0.587146
    152 C52        -2.6060   -1.8420    1.1560 c3        1 MOL      0.046649
    153 C53        -1.7210   -2.4620    0.0550 c3        1 MOL      0.118043
    154 C54        -0.5150   -1.5540   -0.2840 c         1 MOL      0.614310
    155 O22        -0.2770   -0.4760    0.3190 o         1 MOL     -0.733930
    156 O23         0.2590   -1.8090   -1.2700 o         1 MOL     -0.733930
    157 H67        -4.5530   -1.2960   -0.3970 hn        1 MOL      0.110447
    158 H68        -3.7510   -3.6160    1.3090 h1        1 MOL      0.139767
    159 H69        -2.0530   -1.7800    2.0910 hc        1 MOL      0.052833
    160 H70        -2.7730   -0.7750    0.9650 hc        1 MOL      0.052833
    161 H71        -2.2360   -2.7370   -0.8690 hc        1 MOL     -0.021009
    162 H72        -1.3120   -3.3650    0.5080 hc        1 MOL     -0.021009
    163 N14        -5.3040   -1.0220    2.5190 n         1 MOL     -0.142205
    164 C55        -6.2090   -0.4860    3.6150 c3        1 MOL     -0.210250
    165 H73        -7.2390   -0.7840    3.4140 h1        1 MOL      0.091887
    166 H74        -5.8950   -0.8910    4.5770 h1        1 MOL      0.091887
    167 H75        -6.1450    0.6020    3.6400 h1        1 MOL      0.091887
    168 H76        -5.1480   -0.4070    1.7260 hn        1 MOL      0.072130
    169 Ca1         1.7640    0.3980   -1.1160 Ca        1 MOL      1.788060
    170 O24         1.7000    0.6740   -3.7950 oh        1 MOL     -0.911465
    171 H77         1.4780    1.2290   -4.5460 ho        1 MOL      0.425060
    172 H78         2.3740    0.0770   -4.1290 ho        1 MOL      0.425060
@<TRIPOS>BOND
     1    1    2 1   
     2    1    4 1   
     3    1    5 1   
     4    1    6 1   
     5    2    3 2   
     6    2    7 1   
     7    7    8 1   
     8    7   15 1   
     9    8    9 1   
    10    8   11 1   
    11    8   16 1   
    12    9   10 2   
    13    9   19 1   
    14   11   12 1   
    15   11   17 1   
    16   11   18 1   
    17   12   13 1   
    18   12   14 1   
    19   19   20 1   
    20   19   24 1   
    21   20   21 1   
    22   20   23 1   
    23   20   25 1   
    24   21   22 2   
    25   21   29 1   
    26   23   26 1   
    27   23   27 1   
    28   23   28 1   
    29   29   30 1   
    30   29   37 1   
    31   30   31 1   
    32   30   33 1   
    33   30   38 1   
    34   31   32 2   
    35   31   41 1   
    36   33   34 1   
    37   33   39 1   
    38   33   40 1   
    39   34   35 1   
    40   34   36 1   
    41   41   42 1   
    42   41   45 1   
    43   42   43 1   
    44   42   46 1   
    45   42   47 1   
    46   43   44 2   
    47   43   48 1   
    48   48   49 1   
    49   48   56 1   
    50   49   50 1   
    51   49   52 1   
    52   49   57 1   
    53   50   51 2   
    54   50   62 1   
    55   52   53 1   
    56   52   58 1   
    57   52   59 1   
    58   53   54 1   
    59   53   55 2   
    60   54   60 1   
    61   54   61 1   
    62   62   63 1   
    63   62   66 1   
    64   63   64 1   
    65   63   67 1   
    66   63   68 1   
    67   64   65 2   
    68   64   69 1   
    69   69   70 1   
    70   69   76 1   
    71   70   71 1   
    72   70   73 1   
    73   70   77 1   
    74   71   72 2   
    75   71   83 1   
    76   73   74 1   
    77   73   75 1   
    78   73   78 1   
    79   74   80 1   
    80   74   81 1   
    81   74   82 1   
    82   75   79 1   
    83   83   84 1   
    84   83   91 1   
    85   84   85 1   
    86   84   87 1   
    87   84   92 1   
    88   85   86 2   
    89   85  102 1   
    90   87   88 1   
    91   87   89 1   
    92   87   93 1   
    93   88   90 1   
    94   88   94 1   
    95   88   95 1   
    96   89   96 1   
    97   89   97 1   
    98   89   98 1   
    99   90   99 1   
   100   90  100 1   
   101   90  101 1   
   102  102  103 1   
   103  102  110 1   
   104  103  104 1   
   105  103  106 1   
   106  103  111 1   
   107  104  105 2   
   108  104  114 1   
   109  106  107 1   
   110  106  112 1   
   111  106  113 1   
   112  107  108 1   
   113  107  109 1   
   114  114  115 1   
   115  114  125 1   
   116  115  116 1   
   117  115  118 1   
   118  115  126 1   
   119  116  117 2   
   120  116  134 1   
   121  118  119 1   
   122  118  127 1   
   123  118  128 1   
   124  119  120 ar  
   125  119  121 ar  
   126  120  122 ar  
   127  120  129 1   
   128  121  123 ar  
   129  121  130 1   
   130  122  124 ar  
   131  122  131 1   
   132  123  124 ar  
   133  123  132 1   
   134  124  133 1   
   135  134  135 1   
   136  134  140 1   
   137  135  136 1   
   138  135  138 1   
   139  135  141 1   
   140  136  137 2   
   141  136  148 1   
   142  138  139 1   
   143  138  142 1   
   144  138  143 1   
   145  139  140 1   
   146  139  144 1   
   147  139  145 1   
   148  140  146 1   
   149  140  147 1   
   150  148  149 1   
   151  148  157 1   
   152  149  150 1   
   153  149  152 1   
   154  149  158 1   
   155  150  151 2   
   156  150  163 1   
   157  152  153 1   
   158  152  159 1   
   159  152  160 1   
   160  153  154 1   
   161  153  161 1   
   162  153  162 1   
   163  154  155 1   
   164  154  156 1   
   165  163  164 1   
   166  163  168 1   
   167  164  165 1   
   168  164  166 1   
   169  164  167 1   
   170  170  171 1   
   171  170  172 1   
@<TRIPOS>SUBSTRUCTURE
     1 MOL         1 TEMP              0 ****  ****    0 ROOT
