@<TRIPOS>MOLECULE
MOL
  179   176     1     0     0
SMALL
resp


@<TRIPOS>ATOM
      1 C1          0.9730    5.4910   -4.3280 c3        1 MOL     -0.328385
      2 C2          0.9910    4.5030   -3.1370 c         1 MOL      0.644233
      3 O1          0.4570    4.8230   -2.0550 o         1 MOL     -0.548060
      4 H1          0.3590    5.0810   -5.1300 hc        1 MOL      0.084472
      5 H2          0.5560    6.4450   -4.0040 hc        1 MOL      0.084472
      6 H3          1.9890    5.6420   -4.6910 hc        1 MOL      0.084472
      7 N1          1.7120    3.3430   -3.2400 n         1 MOL     -0.504530
      8 C3          2.2060    2.5430   -2.1000 c3        1 MOL      0.129355
      9 C4          3.2450    3.2630   -1.2610 c         1 MOL      0.455131
     10 O2          4.4370    2.8660   -1.3060 o         1 MOL     -0.503490
     11 C5          2.6240    1.1420   -2.5510 c3        1 MOL     -0.068417
     12 C6          3.0150    0.2730   -1.3290 c         1 MOL      0.690236
     13 O3          2.3000    0.4560   -0.2790 o         1 MOL     -0.747021
     14 O4          3.8660   -0.6210   -1.4710 o         1 MOL     -0.747021
     15 H4          2.0320    3.1730   -4.1860 hn        1 MOL      0.294659
     16 H5          1.3690    2.2720   -1.4560 h1        1 MOL      0.041681
     17 H6          3.4400    1.2520   -3.2720 hc        1 MOL      0.013175
     18 H7          1.7790    0.7040   -3.0750 hc        1 MOL      0.013175
     19 N2          2.9740    4.4090   -0.6600 n         1 MOL     -0.325413
     20 C7          3.9930    5.3210   -0.0520 c3        1 MOL     -0.006387
     21 C8          4.7660    4.7290    1.1850 c         1 MOL      0.465414
     22 O5          5.7560    5.3920    1.4880 o         1 MOL     -0.558655
     23 C9          3.3640    6.6580    0.3420 c3        1 MOL     -0.270798
     24 C10         2.8690    7.4310   -0.9060 c3        1 MOL      0.151790
     25 C11         2.2330    8.7440   -0.4720 c3        1 MOL     -0.015595
     26 C12         2.0750    9.7120   -1.6940 c3        1 MOL     -0.062410
     27 N3          3.3540   10.1960   -2.2530 n4        1 MOL     -0.348654
     28 H8          2.0680    4.8070   -0.8510 hn        1 MOL      0.244059
     29 H9          4.7330    5.5610   -0.8170 h1        1 MOL      0.076447
     30 H10         4.0380    7.2860    0.9080 hc        1 MOL      0.112635
     31 H11         2.5890    6.3770    1.0620 hc        1 MOL      0.112635
     32 H12         2.1500    6.8770   -1.5160 hc        1 MOL     -0.021920
     33 H13         3.6320    7.6160   -1.6590 hc        1 MOL     -0.021920
     34 H14         2.9240    9.1890    0.2390 hc        1 MOL      0.043931
     35 H15         1.2520    8.6950    0.0100 hc        1 MOL      0.043931
     36 H16         1.5210   10.5670   -1.3120 hx        1 MOL      0.118547
     37 H17         1.4650    9.2500   -2.4680 hx        1 MOL      0.118547
     38 H18         3.9150   10.6870   -1.5720 hn        1 MOL      0.323794
     39 H19         3.9800    9.4500   -2.5200 hn        1 MOL      0.323794
     40 H20         3.2030   10.8430   -3.0130 hn        1 MOL      0.323794
     41 N4          4.2570    3.7400    1.8970 n         1 MOL     -0.258822
     42 C13         4.9500    2.9380    2.9560 c3        1 MOL      0.007151
     43 C14         5.8690    1.9080    2.2690 c         1 MOL      0.428436
     44 O6          6.7470    1.3810    2.9260 o         1 MOL     -0.540756
     45 C15         3.9690    2.2570    3.9800 c3        1 MOL     -0.280276
     46 C16         2.9240    1.3580    3.2780 c         1 MOL      0.840035
     47 O7          2.0270    1.8170    2.5380 o         1 MOL     -0.727755
     48 O8          2.8820    0.1600    3.5260 o         1 MOL     -0.727755
     49 H21         3.3520    3.3630    1.6430 hn        1 MOL      0.178883
     50 H22         5.4900    3.6690    3.5620 h1        1 MOL      0.114173
     51 H23         3.4160    2.9940    4.5740 hc        1 MOL      0.083952
     52 H24         4.6270    1.7150    4.6640 hc        1 MOL      0.083952
     53 N5          5.7210    1.5540    0.9910 n         1 MOL     -0.092204
     54 C17         6.5780    0.7560    0.1000 c3        1 MOL     -0.131278
     55 C18         6.6140   -0.6880    0.4770 c         1 MOL      0.477451
     56 O9          7.6040   -1.3000    0.0900 o         1 MOL     -0.596737
     57 H25         4.9680    1.9980    0.4810 hn        1 MOL      0.083628
     58 H26         7.5780    1.1300   -0.1080 h1        1 MOL      0.108488
     59 H27         6.0410    0.6940   -0.8460 h1        1 MOL      0.108488
     60 N6          5.6720   -1.3160    1.1070 n         1 MOL     -0.016185
     61 C19         5.6530   -2.6610    1.4670 c3        1 MOL     -0.179931
     62 C20         5.2190   -3.6640    0.3260 c         1 MOL      0.302709
     63 O10         5.1330   -4.8770    0.5130 o         1 MOL     -0.451622
     64 C21         4.8480   -2.9560    2.7260 c3        1 MOL     -0.133946
     65 C22         3.3410   -3.0540    2.5720 c         1 MOL      0.693397
     66 N7          2.6150   -3.6920    3.4700 n         1 MOL     -0.801627
     67 O11         2.7930   -2.5100    1.6120 o         1 MOL     -0.724828
     68 H28         4.8700   -0.7490    1.3760 hn        1 MOL      0.070319
     69 H29         6.7060   -2.8730    1.6290 h1        1 MOL      0.154508
     70 H30         4.9510   -2.1450    3.4460 hc        1 MOL      0.071002
     71 H31         5.0810   -3.8900    3.2240 hc        1 MOL      0.071002
     72 H32         2.9620   -4.2840    4.2180 hn        1 MOL      0.385156
     73 H33         1.6350   -3.6790    3.2450 hn        1 MOL      0.385156
     74 N8          4.9520   -3.1780   -0.8950 n         1 MOL     -0.158390
     75 C23         4.6940   -4.0010   -2.0790 c3        1 MOL     -0.344701
     76 C24         3.1940   -4.1500   -2.3670 c         1 MOL      0.695789
     77 O12         2.9150   -4.7620   -3.3960 o         1 MOL     -0.570824
     78 H34         4.9960   -2.1600   -0.9740 hn        1 MOL      0.304721
     79 H35         5.0820   -5.0130   -2.0220 h1        1 MOL      0.149450
     80 H36         5.1890   -3.4990   -2.9130 h1        1 MOL      0.149450
     81 N9          2.3790   -3.6140   -1.4620 n         1 MOL     -0.629692
     82 C25         0.9740   -3.8540   -1.5200 c3        1 MOL      0.159594
     83 C26         0.0180   -2.6430   -1.2690 c         1 MOL      0.560709
     84 O13         0.3500   -1.7260   -0.5180 o         1 MOL     -0.611906
     85 C27         0.5880   -4.9290   -0.5850 c3        1 MOL     -0.007106
     86 C28         1.3340   -6.2810   -0.9450 ca        1 MOL      0.144474
     87 C29         2.5280   -6.6200   -0.2230 ca        1 MOL     -0.345349
     88 C30         0.8310   -7.1720   -1.9870 ca        1 MOL     -0.345349
     89 C31         3.1780   -7.8750   -0.4340 ca        1 MOL     -0.051015
     90 C32         1.5240   -8.3610   -2.1830 ca        1 MOL     -0.051015
     91 C33         2.6490   -8.7820   -1.4240 ca        1 MOL      0.143511
     92 O14         3.3350   -9.9410   -1.7120 oh        1 MOL     -0.440108
     93 H37         2.7270   -3.0220   -0.7160 hn        1 MOL      0.560366
     94 H38         0.8020   -4.2620   -2.5130 h1        1 MOL      0.018682
     95 H39        -0.4800   -5.1050   -0.7170 hc        1 MOL     -0.007074
     96 H40         0.7140   -4.5670    0.4410 hc        1 MOL     -0.007074
     97 H41         2.8390   -5.9440    0.5590 ha        1 MOL      0.182192
     98 H42         0.0280   -6.8940   -2.6520 ha        1 MOL      0.182192
     99 H43         4.0310   -8.1940    0.1480 ha        1 MOL      0.096927
    100 H44         1.2020   -9.0810   -2.9180 ha        1 MOL      0.096927
    101 H45         3.0630  -10.1800   -2.6060 ho        1 MOL      0.340956
    102 N10        -1.1530   -2.6580   -1.9040 n         1 MOL     -0.545714
    103 C34        -2.2260   -1.6000   -1.7340 c3        1 MOL      0.032797
    104 C35        -3.4890   -2.3170   -1.2380 c         1 MOL      0.549521
    105 O15        -4.0520   -3.1750   -1.9500 o         1 MOL     -0.555902
    106 C36        -2.3490   -0.7850   -3.0570 c3        1 MOL     -0.016549
    107 C37        -1.2570    0.3260   -3.1030 c3        1 MOL     -0.068021
    108 C38        -3.6690   -0.1660   -3.1890 c3        1 MOL     -0.071436
    109 C39        -1.3210    1.0520   -4.5070 c3        1 MOL     -0.076130
    110 H46        -1.3290   -3.3740   -2.5950 hn        1 MOL      0.323810
    111 H47        -2.0240   -0.9090   -0.9140 h1        1 MOL      0.069608
    112 H48        -2.1020   -1.4180   -3.9180 hc        1 MOL      0.061851
    113 H49        -0.2650   -0.1200   -3.0210 hc        1 MOL      0.068668
    114 H50        -1.3730    1.1120   -2.3540 hc        1 MOL      0.068668
    115 H51        -4.4560   -0.8760   -2.9250 hc        1 MOL      0.006399
    116 H52        -3.8120    0.6300   -2.4580 hc        1 MOL      0.006399
    117 H53        -3.7460    0.2990   -4.1650 hc        1 MOL      0.006399
    118 H54        -0.3990    1.5280   -4.8240 hc        1 MOL      0.020565
    119 H55        -1.5730    0.3370   -5.2900 hc        1 MOL      0.020565
    120 H56        -2.0260    1.8750   -4.4580 hc        1 MOL      0.020565
    121 N11        -4.0090   -1.9260   -0.0950 n         1 MOL     -0.336993
    122 C40        -5.2540   -2.4600    0.3980 c3        1 MOL      0.156356
    123 C41        -6.5520   -1.6860   -0.1640 c         1 MOL      0.226530
    124 O16        -6.3160   -0.6790   -0.7870 o         1 MOL     -0.217448
    125 C42        -5.2430   -2.4240    1.8990 c3        1 MOL     -0.452377
    126 O17        -5.6850   -1.1500    2.3280 oh        1 MOL     -0.351396
    127 H57        -3.4630   -1.2870    0.4720 hn        1 MOL      0.255212
    128 H58        -5.3360   -3.4780    0.0290 h1        1 MOL      0.046319
    129 H59        -4.2250   -2.6270    2.2240 h1        1 MOL      0.180020
    130 H60        -5.9060   -3.2040    2.2750 h1        1 MOL      0.180020
    131 H61        -5.5560   -1.2630    3.2670 ho        1 MOL      0.369311
    132 N12        -7.7410   -2.1320    0.1540 n         1 MOL     -0.316394
    133 C43        -8.9410   -1.3660   -0.2340 c3        1 MOL      0.123331
    134 C44        -8.9900    0.0050    0.4610 c         1 MOL      0.433737
    135 O18        -9.5200    0.9880   -0.1420 o         1 MOL     -0.522697
    136 C45       -10.2040   -2.1850    0.0160 c3        1 MOL     -0.210753
    137 H62        -7.8070   -3.0450    0.6000 hn        1 MOL      0.279796
    138 H63        -8.8420   -1.1860   -1.3010 h1        1 MOL      0.089835
    139 H64       -10.1320   -3.0780   -0.6090 hc        1 MOL      0.070099
    140 H65       -10.3000   -2.5660    1.0340 hc        1 MOL      0.070099
    141 H66       -11.1240   -1.6380   -0.2050 hc        1 MOL      0.070099
    142 N13        -8.4170    0.0790    1.6830 n         1 MOL     -0.337133
    143 C46        -8.3390    1.3040    2.4800 c3        1 MOL      0.187480
    144 C47        -7.1930    2.2190    2.0020 c         1 MOL      0.269971
    145 O19        -7.3070    3.4570    2.1660 o         1 MOL     -0.504257
    146 C48        -8.3510    0.8900    3.8930 c3        1 MOL     -0.340280
    147 H67        -8.1060   -0.7730    2.1320 hn        1 MOL      0.163868
    148 H68        -9.2760    1.8370    2.3080 h1        1 MOL      0.087498
    149 H69        -7.3490    0.4850    4.0470 hc        1 MOL      0.097559
    150 H70        -8.6470    1.7380    4.5110 hc        1 MOL      0.097559
    151 H71        -9.2020    0.2650    4.1340 hc        1 MOL      0.097559
    152 N14        -6.1690    1.6900    1.2660 n         1 MOL      0.006411
    153 C49        -5.1580    2.4250    0.4860 c3        1 MOL     -0.122417
    154 C50        -5.6330    2.8690   -0.9680 c         1 MOL      0.477707
    155 O20        -5.4310    4.0040   -1.3340 o         1 MOL     -0.526341
    156 C51        -3.8310    1.6510    0.4490 c3        1 MOL      0.169420
    157 C52        -3.2550    1.3000    1.8780 c3        1 MOL     -0.212137
    158 C53        -1.9400    0.5340    1.8410 c         1 MOL      0.890378
    159 O21        -0.9200    1.0190    1.4600 o         1 MOL     -0.779311
    160 O22        -1.9230   -0.6780    2.1450 o         1 MOL     -0.779311
    161 H72        -6.1670    0.6790    1.2820 hn        1 MOL      0.130694
    162 H73        -4.9120    3.3430    1.0210 h1        1 MOL      0.089825
    163 H74        -3.0980    2.2040   -0.1500 hc        1 MOL     -0.004313
    164 H75        -4.1040    0.7180   -0.0330 hc        1 MOL     -0.004313
    165 H76        -4.0300    0.6210    2.2570 hc        1 MOL     -0.013484
    166 H77        -3.2410    2.2100    2.4810 hc        1 MOL     -0.013484
    167 N15        -6.3600    1.9270   -1.6450 n         1 MOL     -0.069929
    168 C54        -6.9310    2.2210   -2.9630 c3        1 MOL     -0.352879
    169 H78        -7.1440    1.2870   -3.4820 h1        1 MOL      0.121627
    170 H79        -7.8540    2.7880   -2.8420 h1        1 MOL      0.121627
    171 H80        -6.2180    2.8060   -3.5450 h1        1 MOL      0.121627
    172 H81        -6.5910    1.0210   -1.2650 hn        1 MOL      0.046079
    173 Ca1         1.0660   -0.4710    1.7330 Ca        1 MOL      1.758314
    174 O23        -0.3760   -2.7550    2.5780 oh        1 MOL     -0.805273
    175 H82        -1.1620   -2.2360    2.4130 ho        1 MOL      0.388490
    176 H83        -0.6520   -3.4220    3.2050 ho        1 MOL      0.388490
    177 O24        -0.0990    0.1030    4.3370 oh        1 MOL     -0.805273
    178 H84        -0.7690    0.7850    4.3780 ho        1 MOL      0.388490
    179 H85        -0.4240   -0.5870    4.9170 ho        1 MOL      0.388490
@<TRIPOS>BOND
     1    1    2 1   
     2    1    4 1   
     3    1    5 1   
     4    1    6 1   
     5    2    3 2   
     6    2    7 1   
     7    7    8 1   
     8    7   15 1   
     9    8    9 1   
    10    8   11 1   
    11    8   16 1   
    12    9   10 2   
    13    9   19 1   
    14   11   12 1   
    15   11   17 1   
    16   11   18 1   
    17   12   13 1   
    18   12   14 1   
    19   19   20 1   
    20   19   28 1   
    21   20   21 1   
    22   20   23 1   
    23   20   29 1   
    24   21   22 2   
    25   21   41 1   
    26   23   24 1   
    27   23   30 1   
    28   23   31 1   
    29   24   25 1   
    30   24   32 1   
    31   24   33 1   
    32   25   26 1   
    33   25   34 1   
    34   25   35 1   
    35   26   27 1   
    36   26   36 1   
    37   26   37 1   
    38   27   38 1   
    39   27   39 1   
    40   27   40 1   
    41   41   42 1   
    42   41   49 1   
    43   42   43 1   
    44   42   45 1   
    45   42   50 1   
    46   43   44 2   
    47   43   53 1   
    48   45   46 1   
    49   45   51 1   
    50   45   52 1   
    51   46   47 1   
    52   46   48 1   
    53   53   54 1   
    54   53   57 1   
    55   54   55 1   
    56   54   58 1   
    57   54   59 1   
    58   55   56 2   
    59   55   60 1   
    60   60   61 1   
    61   60   68 1   
    62   61   62 1   
    63   61   64 1   
    64   61   69 1   
    65   62   63 2   
    66   62   74 1   
    67   64   65 1   
    68   64   70 1   
    69   64   71 1   
    70   65   66 1   
    71   65   67 2   
    72   66   72 1   
    73   66   73 1   
    74   74   75 1   
    75   74   78 1   
    76   75   76 1   
    77   75   79 1   
    78   75   80 1   
    79   76   77 2   
    80   76   81 1   
    81   81   82 1   
    82   81   93 1   
    83   82   83 1   
    84   82   85 1   
    85   82   94 1   
    86   83   84 2   
    87   83  102 1   
    88   85   86 1   
    89   85   95 1   
    90   85   96 1   
    91   86   87 ar  
    92   86   88 ar  
    93   87   89 ar  
    94   87   97 1   
    95   88   90 ar  
    96   88   98 1   
    97   89   91 ar  
    98   89   99 1   
    99   90   91 ar  
   100   90  100 1   
   101   91   92 1   
   102   92  101 1   
   103  102  103 1   
   104  102  110 1   
   105  103  104 1   
   106  103  106 1   
   107  103  111 1   
   108  104  105 2   
   109  104  121 1   
   110  106  107 1   
   111  106  108 1   
   112  106  112 1   
   113  107  109 1   
   114  107  113 1   
   115  107  114 1   
   116  108  115 1   
   117  108  116 1   
   118  108  117 1   
   119  109  118 1   
   120  109  119 1   
   121  109  120 1   
   122  121  122 1   
   123  121  127 1   
   124  122  123 1   
   125  122  125 1   
   126  122  128 1   
   127  123  124 2   
   128  123  132 1   
   129  125  126 1   
   130  125  129 1   
   131  125  130 1   
   132  126  131 1   
   133  132  133 1   
   134  132  137 1   
   135  133  134 1   
   136  133  136 1   
   137  133  138 1   
   138  134  135 2   
   139  134  142 1   
   140  136  139 1   
   141  136  140 1   
   142  136  141 1   
   143  142  143 1   
   144  142  147 1   
   145  143  144 1   
   146  143  146 1   
   147  143  148 1   
   148  144  145 2   
   149  144  152 1   
   150  146  149 1   
   151  146  150 1   
   152  146  151 1   
   153  152  153 1   
   154  152  161 1   
   155  153  154 1   
   156  153  156 1   
   157  153  162 1   
   158  154  155 2   
   159  154  167 1   
   160  156  157 1   
   161  156  163 1   
   162  156  164 1   
   163  157  158 1   
   164  157  165 1   
   165  157  166 1   
   166  158  159 1   
   167  158  160 1   
   168  167  168 1   
   169  167  172 1   
   170  168  169 1   
   171  168  170 1   
   172  168  171 1   
   173  174  175 1   
   174  174  176 1   
   175  177  178 1   
   176  177  179 1   
@<TRIPOS>SUBSTRUCTURE
     1 MOL         1 TEMP              0 ****  ****    0 ROOT
