@<TRIPOS>MOLECULE
MOL
  189   185     1     0     0
SMALL
resp


@<TRIPOS>ATOM
      1 C1          0.5010    2.2840    5.5770 c3        1 MOL     -0.202070
      2 C2          0.0300    2.3440    4.1100 c         1 MOL      0.860338
      3 O1          0.7780    2.8380    3.2740 o         1 MOL     -0.670734
      4 H1         -0.1210    2.9400    6.1850 hc        1 MOL      0.039754
      5 H2          0.4170    1.2610    5.9440 hc        1 MOL      0.039754
      6 H3          1.5400    2.6090    5.6390 hc        1 MOL      0.039754
      7 N1         -1.1570    1.7410    3.8640 n         1 MOL     -0.701773
      8 C3         -1.7150    1.7350    2.4930 c3        1 MOL      0.319449
      9 C4         -2.2950    3.1040    1.9930 c         1 MOL      0.303959
     10 O2         -3.0500    3.6900    2.7690 o         1 MOL     -0.512029
     11 C5         -2.8770    0.7070    2.4950 c3        1 MOL     -0.487668
     12 C6         -3.6690    0.7810    1.1690 c         1 MOL      0.886300
     13 O3         -3.0550    0.8280    0.0750 o         1 MOL     -0.709381
     14 O4         -4.9460    0.7310    1.2020 o         1 MOL     -0.709381
     15 H4         -1.6870    1.2930    4.5980 hn        1 MOL      0.342814
     16 H5         -0.9280    1.4140    1.8140 h1        1 MOL     -0.007494
     17 H6         -3.5410    0.9660    3.3250 hc        1 MOL      0.119816
     18 H7         -2.4610   -0.2970    2.5350 hc        1 MOL      0.119816
     19 N2         -1.9640    3.5600    0.7330 n         1 MOL     -0.244601
     20 C7         -2.4280    4.8360    0.2000 c3        1 MOL      0.194598
     21 C8         -3.5650    4.7910   -0.8750 c         1 MOL      0.534000
     22 O5         -3.9200    5.8700   -1.3370 o         1 MOL     -0.563818
     23 C9         -1.2540    5.7760   -0.0240 c3        1 MOL     -0.048832
     24 C10        -0.2590    5.8480    1.0910 c3        1 MOL      0.276351
     25 C11        -0.6820    6.5500    2.4090 c3        1 MOL     -0.224180
     26 C12         0.5290    6.7300    3.2780 c3        1 MOL      0.082233
     27 N3          0.3220    7.6190    4.4340 n4        1 MOL     -0.254203
     28 H8         -1.3740    2.9440    0.1990 hn        1 MOL      0.283408
     29 H9         -2.9070    5.3400    1.0440 h1        1 MOL     -0.016407
     30 H10        -1.6030    6.7850   -0.2490 hc        1 MOL     -0.007116
     31 H11        -0.6420    5.3870   -0.8420 hc        1 MOL     -0.007116
     32 H12         0.5410    6.4770    0.6980 hc        1 MOL     -0.049160
     33 H13         0.2750    4.9000    1.1920 hc        1 MOL     -0.049160
     34 H14        -1.4110    5.8980    2.8860 hc        1 MOL      0.060680
     35 H15        -1.1550    7.4940    2.1450 hc        1 MOL      0.060680
     36 H16         1.2710    7.1730    2.6190 hx        1 MOL      0.059814
     37 H17         0.7720    5.7350    3.6470 hx        1 MOL      0.059814
     38 H18        -0.5040    7.2030    4.8470 hn        1 MOL      0.295784
     39 H19         1.1000    7.7560    5.0600 hn        1 MOL      0.295784
     40 H20         0.0410    8.5460    4.1480 hn        1 MOL      0.295784
     41 N4         -4.0340    3.6010   -1.1510 n         1 MOL     -0.461444
     42 C13        -5.0140    3.3520   -2.2410 c3        1 MOL     -0.010274
     43 C14        -6.4020    2.9510   -1.7860 c         1 MOL      0.492658
     44 O6         -7.4000    3.2680   -2.4290 o         1 MOL     -0.546983
     45 C15        -4.4370    2.2120   -3.1810 c3        1 MOL     -0.031608
     46 C16        -2.9360    2.3070   -3.2960 c         1 MOL      0.650926
     47 O7         -2.2240    1.3980   -2.8600 o         1 MOL     -0.636252
     48 O8         -2.4190    3.2850   -3.8350 o         1 MOL     -0.636252
     49 H21        -3.6070    2.8370   -0.6440 hn        1 MOL      0.240423
     50 H22        -5.0860    4.2630   -2.8350 h1        1 MOL      0.099097
     51 H23        -4.9080    2.2800   -4.1600 hc        1 MOL      0.013082
     52 H24        -4.7900    1.2570   -2.8020 hc        1 MOL      0.013082
     53 N5         -6.4340    2.1450   -0.7060 n         1 MOL     -0.253669
     54 C17        -7.7670    1.6600   -0.2050 c3        1 MOL     -0.232940
     55 C18        -8.0190    0.2050   -0.7620 c         1 MOL      0.506515
     56 O9         -9.1560   -0.1140   -1.0500 o         1 MOL     -0.570062
     57 H25        -5.5950    1.7590   -0.2990 hn        1 MOL      0.188398
     58 H26        -8.5680    2.2830   -0.6190 h1        1 MOL      0.127354
     59 H27        -7.8010    1.7100    0.8850 h1        1 MOL      0.127354
     60 N6         -6.9150   -0.5400   -1.0240 n         1 MOL     -0.059409
     61 C19        -6.9590   -1.8570   -1.7310 c3        1 MOL     -0.353778
     62 C20        -6.8960   -3.1080   -0.8160 c         1 MOL      0.489702
     63 O10        -6.5280   -4.1730   -1.3130 o         1 MOL     -0.479812
     64 C21        -5.7880   -1.7430   -2.7300 c3        1 MOL      0.025407
     65 C22        -4.3380   -1.5750   -2.3330 c         1 MOL      0.738313
     66 O11        -3.8980   -2.1480   -1.3080 o         1 MOL     -0.751783
     67 O12        -3.4810   -1.0620   -3.0640 o         1 MOL     -0.751783
     68 H28        -6.0460   -0.2020   -0.6400 hn        1 MOL      0.151934
     69 H29        -7.8190   -1.9350   -2.3960 h1        1 MOL      0.195198
     70 H30        -6.0160   -0.8330   -3.2700 hc        1 MOL      0.025162
     71 H31        -5.8170   -2.4730   -3.5390 hc        1 MOL      0.025162
     72 N7         -7.1150   -3.0090    0.5230 n         1 MOL     -0.347104
     73 C23        -6.7370   -4.0760    1.4760 c3        1 MOL     -0.151736
     74 C24        -5.3240   -4.5680    1.5450 c         1 MOL      0.583842
     75 O13        -5.1130   -5.6280    2.0880 o         1 MOL     -0.583829
     76 H32        -7.2860   -2.0740    0.8490 hn        1 MOL      0.247920
     77 H33        -7.4080   -4.8900    1.1660 h1        1 MOL      0.111929
     78 H34        -6.9700   -3.7470    2.4780 h1        1 MOL      0.111929
     79 N8         -4.2540   -3.9180    1.0250 n         1 MOL     -0.323595
     80 C25        -2.8320   -4.4040    1.0500 c3        1 MOL     -0.159423
     81 C26        -1.7260   -3.2960    1.1170 c         1 MOL      0.665273
     82 O14        -1.8960   -2.1880    0.6770 o         1 MOL     -0.658219
     83 C27        -2.6250   -5.2320   -0.3130 c3        1 MOL      0.611325
     84 C28        -3.1860   -6.6630   -0.3160 c3        1 MOL     -0.481495
     85 O15        -3.1500   -4.5710   -1.4160 oh        1 MOL     -0.689742
     86 H35        -4.3060   -3.0020    0.6130 hn        1 MOL      0.252569
     87 H36        -2.6220   -5.0760    1.8780 h1        1 MOL      0.090493
     88 H37        -1.5600   -5.4230   -0.4240 h1        1 MOL     -0.092922
     89 H38        -3.4350   -3.7120   -1.1210 ho        1 MOL      0.466703
     90 H39        -4.1890   -6.6440    0.0980 hc        1 MOL      0.119596
     91 H40        -3.2700   -6.9800   -1.3550 hc        1 MOL      0.119596
     92 H41        -2.4850   -7.2720    0.2610 hc        1 MOL      0.119596
     93 N9         -0.5810   -3.7110    1.5730 n         1 MOL     -0.718308
     94 C29         0.7030   -2.9980    1.7940 c3        1 MOL      0.201105
     95 C30         1.8040   -3.5890    0.9620 c         1 MOL      0.432699
     96 O16         2.1720   -4.7670    1.0250 o         1 MOL     -0.549265
     97 C31         0.9690   -3.0710    3.2660 c3        1 MOL      0.225378
     98 C32        -0.1780   -2.4850    4.1720 c3        1 MOL     -0.008544
     99 C33         2.2040   -2.2340    3.4700 c3        1 MOL     -0.534695
    100 C34         0.0510   -2.8510    5.5890 c3        1 MOL     -0.140305
    101 H42        -0.5330   -4.6740    1.8620 hn        1 MOL      0.329385
    102 H43         0.5550   -1.9850    1.4090 h1        1 MOL      0.108835
    103 H44         1.0460   -4.1540    3.3890 hc        1 MOL     -0.020524
    104 H45        -1.1450   -2.9140    3.9390 hc        1 MOL      0.036582
    105 H46        -0.1620   -1.3890    4.1370 hc        1 MOL      0.036582
    106 H47         2.1470   -1.2710    2.9560 hc        1 MOL      0.117119
    107 H48         2.4980   -2.1010    4.5110 hc        1 MOL      0.117119
    108 H49         3.0870   -2.7280    3.0640 hc        1 MOL      0.117119
    109 H50         1.0090   -2.4740    5.9490 hc        1 MOL      0.033486
    110 H51        -0.7190   -2.4420    6.2430 hc        1 MOL      0.033486
    111 H52        -0.1760   -3.8940    5.8490 hc        1 MOL      0.033486
    112 N10         2.5050   -2.7170    0.2570 n         1 MOL     -0.037289
    113 C35         3.6790   -3.0700   -0.6130 c3        1 MOL     -0.171476
    114 C36         5.0430   -2.8480    0.1930 c         1 MOL      0.501428
    115 O17         5.0810   -2.1300    1.1970 o         1 MOL     -0.433604
    116 C37         3.7140   -2.2550   -1.8810 c3        1 MOL      0.116148
    117 C38         2.6090   -2.7640   -2.8340 c3        1 MOL     -0.234582
    118 O18         3.4480   -0.8740   -1.7310 oh        1 MOL     -0.528874
    119 H53         2.1280   -1.7890    0.1220 hn        1 MOL      0.037203
    120 H54         3.6600   -4.1050   -0.9500 h1        1 MOL      0.112574
    121 H55         4.6940   -2.4040   -2.3310 h1        1 MOL      0.083329
    122 H56         2.5200   -0.8520   -1.4720 ho        1 MOL      0.348177
    123 H57         2.6070   -2.1870   -3.7520 hc        1 MOL      0.070715
    124 H58         2.7490   -3.8020   -3.1020 hc        1 MOL      0.070715
    125 H59         1.6170   -2.6640   -2.3810 hc        1 MOL      0.070715
    126 N11         6.1230   -3.3810   -0.4240 n         1 MOL     -0.413515
    127 C39         7.4920   -2.9170   -0.0530 c3        1 MOL     -0.092350
    128 C40         7.5510   -1.3860   -0.0640 c         1 MOL      0.265044
    129 O19         7.9800   -0.8930    1.0150 o         1 MOL     -0.461118
    130 C41         8.5720   -3.4570   -0.9710 c3        1 MOL      0.280888
    131 C42         8.7790   -4.9580   -0.7630 c3        1 MOL     -0.336888
    132 O20         8.1620   -3.3000   -2.3080 oh        1 MOL     -0.615636
    133 H60         5.9690   -4.1240   -1.0940 hn        1 MOL      0.310217
    134 H61         7.7210   -3.2860    0.9490 h1        1 MOL      0.154806
    135 H62         9.5700   -3.0290   -0.8190 h1        1 MOL      0.054071
    136 H63         8.9510   -3.4580   -2.8200 ho        1 MOL      0.403540
    137 H64         7.9690   -5.5200   -1.2280 hc        1 MOL      0.094721
    138 H65         9.6990   -5.2390   -1.2710 hc        1 MOL      0.094721
    139 H66         8.9320   -5.1820    0.2920 hc        1 MOL      0.094721
    140 N12         6.9520   -0.6900   -1.0430 n         1 MOL     -0.070099
    141 C43         7.1930    0.7550   -1.2410 c3        1 MOL     -0.221891
    142 C44         6.4440    1.5640   -0.1520 c         1 MOL      0.343086
    143 O21         6.9160    2.6710    0.2880 o         1 MOL     -0.516865
    144 C45         6.6480    1.0530   -2.6540 c3        1 MOL     -0.013602
    145 C46         6.9280    2.4990   -3.0180 c3        1 MOL     -0.136603
    146 C47         6.4760    2.7520   -4.4780 c3        1 MOL      0.083234
    147 C48         6.9290    4.1610   -4.7670 c3        1 MOL      0.008122
    148 N13         6.7550    4.3910   -6.1690 n4        1 MOL     -0.190353
    149 H67         6.5700   -1.2090   -1.8140 hn        1 MOL      0.164566
    150 H68         8.2680    0.9310   -1.1950 h1        1 MOL      0.168426
    151 H69         5.5620    0.9560   -2.6220 hc        1 MOL      0.039600
    152 H70         7.1350    0.4390   -3.4080 hc        1 MOL      0.039600
    153 H71         8.0120    2.5630   -2.9140 hc        1 MOL      0.062856
    154 H72         6.3210    3.1160   -2.3550 hc        1 MOL      0.062856
    155 H73         5.3860    2.6310   -4.5180 hc        1 MOL      0.012026
    156 H74         6.9900    2.1230   -5.1980 hc        1 MOL      0.012026
    157 H75         7.9740    4.3370   -4.4850 hx        1 MOL      0.083160
    158 H76         6.2370    4.8110   -4.2460 hx        1 MOL      0.083160
    159 H77         7.1060    3.6350   -6.7410 hn        1 MOL      0.236641
    160 H78         5.7690    4.5240   -6.3710 hn        1 MOL      0.236641
    161 H79         7.2470    5.1780   -6.5470 hn        1 MOL      0.236641
    162 N14         5.1900    1.1150    0.2130 n         1 MOL      0.090710
    163 C49         4.3350    1.6990    1.2450 c3        1 MOL     -0.371381
    164 C50         4.7870    1.4880    2.7060 c         1 MOL      0.594227
    165 O22         4.4730    2.2950    3.5900 o         1 MOL     -0.559998
    166 C51         2.9090    1.1150    1.0450 c3        1 MOL      0.296014
    167 C52         2.2650    1.8200   -0.1400 c3        1 MOL     -0.218755
    168 C53         0.9670    1.0700   -0.5330 c         1 MOL      0.720521
    169 O23        -0.0950    1.6710   -0.6370 o         1 MOL     -0.733258
    170 O24         0.9650   -0.2140   -0.6600 o         1 MOL     -0.733258
    171 H80         4.8300    0.3270   -0.3080 hn        1 MOL      0.120531
    172 H81         4.2340    2.7820    1.1910 h1        1 MOL      0.124342
    173 H82         2.3310    1.1520    1.9630 hc        1 MOL     -0.032053
    174 H83         3.0120    0.0470    0.8290 hc        1 MOL     -0.032053
    175 H84         2.9010    1.9260   -1.0210 hc        1 MOL      0.064627
    176 H85         2.0060    2.8460    0.1300 hc        1 MOL      0.064627
    177 N15         5.6490    0.4600    2.9430 n         1 MOL     -0.256180
    178 C54         6.4300    0.3310    4.1680 c3        1 MOL     -0.309252
    179 H86         5.7580    0.1960    5.0150 h1        1 MOL      0.121428
    180 H87         7.0910   -0.5320    4.0880 h1        1 MOL      0.121428
    181 H88         7.0250    1.2320    4.3160 h1        1 MOL      0.121428
    182 H89         5.9700   -0.1250    2.1840 hn        1 MOL      0.262874
    183 Ca1        -1.4480   -0.5780   -1.5280 Ca        1 MOL      1.757984
    184 O25        -1.1810   -3.0030   -2.2810 oh        1 MOL     -0.844492
    185 H90        -0.7300   -3.3820   -3.0330 ho        1 MOL      0.402518
    186 H91        -1.9750   -3.5380   -2.1790 ho        1 MOL      0.402518
    187 O26        -0.1710   -0.3180   -4.0400 oh        1 MOL     -0.844492
    188 H92        -0.4160    0.5460   -4.3680 ho        1 MOL      0.402518
    189 H93         0.4820   -0.6350   -4.6610 ho        1 MOL      0.402518
@<TRIPOS>BOND
     1    1    2 1   
     2    1    4 1   
     3    1    5 1   
     4    1    6 1   
     5    2    3 2   
     6    2    7 1   
     7    7    8 1   
     8    7   15 1   
     9    8    9 1   
    10    8   11 1   
    11    8   16 1   
    12    9   10 2   
    13    9   19 1   
    14   11   12 1   
    15   11   17 1   
    16   11   18 1   
    17   12   13 1   
    18   12   14 1   
    19   19   20 1   
    20   19   28 1   
    21   20   21 1   
    22   20   23 1   
    23   20   29 1   
    24   21   22 2   
    25   21   41 1   
    26   23   24 1   
    27   23   30 1   
    28   23   31 1   
    29   24   25 1   
    30   24   32 1   
    31   24   33 1   
    32   25   26 1   
    33   25   34 1   
    34   25   35 1   
    35   26   27 1   
    36   26   36 1   
    37   26   37 1   
    38   27   38 1   
    39   27   39 1   
    40   27   40 1   
    41   41   42 1   
    42   41   49 1   
    43   42   43 1   
    44   42   45 1   
    45   42   50 1   
    46   43   44 2   
    47   43   53 1   
    48   45   46 1   
    49   45   51 1   
    50   45   52 1   
    51   46   47 1   
    52   46   48 1   
    53   53   54 1   
    54   53   57 1   
    55   54   55 1   
    56   54   58 1   
    57   54   59 1   
    58   55   56 2   
    59   55   60 1   
    60   60   61 1   
    61   60   68 1   
    62   61   62 1   
    63   61   64 1   
    64   61   69 1   
    65   62   63 2   
    66   62   72 1   
    67   64   65 1   
    68   64   70 1   
    69   64   71 1   
    70   65   66 1   
    71   65   67 1   
    72   72   73 1   
    73   72   76 1   
    74   73   74 1   
    75   73   77 1   
    76   73   78 1   
    77   74   75 2   
    78   74   79 1   
    79   79   80 1   
    80   79   86 1   
    81   80   81 1   
    82   80   83 1   
    83   80   87 1   
    84   81   82 2   
    85   81   93 1   
    86   83   84 1   
    87   83   85 1   
    88   83   88 1   
    89   84   90 1   
    90   84   91 1   
    91   84   92 1   
    92   85   89 1   
    93   93   94 1   
    94   93  101 1   
    95   94   95 1   
    96   94   97 1   
    97   94  102 1   
    98   95   96 2   
    99   95  112 1   
   100   97   98 1   
   101   97   99 1   
   102   97  103 1   
   103   98  100 1   
   104   98  104 1   
   105   98  105 1   
   106   99  106 1   
   107   99  107 1   
   108   99  108 1   
   109  100  109 1   
   110  100  110 1   
   111  100  111 1   
   112  112  113 1   
   113  112  119 1   
   114  113  114 1   
   115  113  116 1   
   116  113  120 1   
   117  114  115 2   
   118  114  126 1   
   119  116  117 1   
   120  116  118 1   
   121  116  121 1   
   122  117  123 1   
   123  117  124 1   
   124  117  125 1   
   125  118  122 1   
   126  126  127 1   
   127  126  133 1   
   128  127  128 1   
   129  127  130 1   
   130  127  134 1   
   131  128  129 2   
   132  128  140 1   
   133  130  131 1   
   134  130  132 1   
   135  130  135 1   
   136  131  137 1   
   137  131  138 1   
   138  131  139 1   
   139  132  136 1   
   140  140  141 1   
   141  140  149 1   
   142  141  142 1   
   143  141  144 1   
   144  141  150 1   
   145  142  143 2   
   146  142  162 1   
   147  144  145 1   
   148  144  151 1   
   149  144  152 1   
   150  145  146 1   
   151  145  153 1   
   152  145  154 1   
   153  146  147 1   
   154  146  155 1   
   155  146  156 1   
   156  147  148 1   
   157  147  157 1   
   158  147  158 1   
   159  148  159 1   
   160  148  160 1   
   161  148  161 1   
   162  162  163 1   
   163  162  171 1   
   164  163  164 1   
   165  163  166 1   
   166  163  172 1   
   167  164  165 2   
   168  164  177 1   
   169  166  167 1   
   170  166  173 1   
   171  166  174 1   
   172  167  168 1   
   173  167  175 1   
   174  167  176 1   
   175  168  169 1   
   176  168  170 1   
   177  177  178 1   
   178  177  182 1   
   179  178  179 1   
   180  178  180 1   
   181  178  181 1   
   182  184  185 1   
   183  184  186 1   
   184  187  188 1   
   185  187  189 1   
@<TRIPOS>SUBSTRUCTURE
     1 MOL         1 TEMP              0 ****  ****    0 ROOT
