@<TRIPOS>MOLECULE
MOL
  176   174     1     0     0
SMALL
resp


@<TRIPOS>ATOM
      1 C1          0.8030    3.2940    6.1100 c3        1 MOL     -0.346989
      2 C2          0.8200    2.6320    4.7480 c         1 MOL      0.794040
      3 O1          1.8220    2.4030    4.0960 o         1 MOL     -0.602296
      4 H1          1.3200    4.2530    6.0530 hc        1 MOL      0.087544
      5 H2         -0.2280    3.4560    6.4230 hc        1 MOL      0.087544
      6 H3          1.3070    2.6520    6.8330 hc        1 MOL      0.087544
      7 N1         -0.3560    2.1840    4.3810 n         1 MOL     -0.665667
      8 C3         -0.7840    2.0840    2.9130 c3        1 MOL     -0.054776
      9 C4         -0.6860    3.5170    2.2560 c         1 MOL      0.596802
     10 O2         -1.2910    4.5110    2.6600 o         1 MOL     -0.543602
     11 C5         -2.2530    1.5750    2.9230 c3        1 MOL      0.002143
     12 C6         -2.6770    1.0260    1.5620 c         1 MOL      0.754129
     13 O3         -2.7640   -0.1820    1.3490 o         1 MOL     -0.789003
     14 O4         -2.6300    1.7460    0.5430 o         1 MOL     -0.789003
     15 H4         -1.1290    2.3290    5.0170 hn        1 MOL      0.335133
     16 H5         -0.1660    1.3660    2.3800 h1        1 MOL      0.117270
     17 H6         -2.9830    2.3400    3.1910 hc        1 MOL      0.010479
     18 H7         -2.4560    0.7850    3.6510 hc        1 MOL      0.010479
     19 N2         -0.0290    3.5190    1.0880 n         1 MOL     -0.296595
     20 C7          0.0830    4.7000    0.2400 c3        1 MOL     -0.421826
     21 C8         -1.1150    5.2140   -0.6020 c         1 MOL      0.723922
     22 O5         -1.1160    6.3540   -1.0110 o         1 MOL     -0.577876
     23 C9          1.2260    4.4700   -0.7230 c3        1 MOL      0.478267
     24 C10         1.8390    5.7680   -1.2980 c3        1 MOL     -0.437934
     25 C11         3.0710    5.4340   -2.1600 c3        1 MOL      0.232326
     26 C12         3.5330    6.6640   -2.9530 c3        1 MOL      0.126206
     27 N3          4.6120    6.4360   -3.9230 n4        1 MOL     -0.441353
     28 H8          0.2680    2.6100    0.7510 hn        1 MOL      0.154085
     29 H9          0.4000    5.5490    0.8330 h1        1 MOL      0.163851
     30 H10         0.8650    3.8720   -1.5670 hc        1 MOL     -0.006545
     31 H11         2.0870    4.0010   -0.2560 hc        1 MOL     -0.006545
     32 H12         2.1950    6.3470   -0.4440 hc        1 MOL      0.098938
     33 H13         1.0880    6.2540   -1.9140 hc        1 MOL      0.098938
     34 H14         2.7560    4.7080   -2.9010 hc        1 MOL     -0.034111
     35 H15         3.8870    5.0700   -1.5410 hc        1 MOL     -0.034111
     36 H16         3.8030    7.5210   -2.3290 hx        1 MOL      0.046989
     37 H17         2.6290    6.9580   -3.4940 hx        1 MOL      0.046989
     38 H18         4.3580    5.7340   -4.6000 hn        1 MOL      0.343537
     39 H19         4.6260    7.3010   -4.4480 hn        1 MOL      0.343537
     40 H20         5.5530    6.3560   -3.5750 hn        1 MOL      0.343537
     41 N4         -2.0860    4.2780   -0.8190 n         1 MOL     -0.517533
     42 C13        -3.2820    4.5240   -1.6170 c3        1 MOL     -0.020412
     43 C14        -4.6040    4.1590   -0.9540 c         1 MOL      0.477676
     44 O6         -5.6630    4.4740   -1.4910 o         1 MOL     -0.556682
     45 C15        -3.1210    3.7150   -2.9800 c3        1 MOL     -0.079392
     46 C16        -2.8510    2.2260   -2.8980 c         1 MOL      0.597482
     47 O7         -3.5950    1.5800   -2.0830 o         1 MOL     -0.697136
     48 O8         -1.8240    1.7030   -3.4240 o         1 MOL     -0.697136
     49 H21        -2.0620    3.4030   -0.3250 hn        1 MOL      0.355910
     50 H22        -3.3420    5.5420   -1.9790 h1        1 MOL      0.108656
     51 H23        -2.3300    4.1950   -3.5480 hc        1 MOL      0.031762
     52 H24        -4.0400    3.8720   -3.5500 hc        1 MOL      0.031762
     53 N5         -4.5600    3.6010    0.2430 n         1 MOL     -0.178149
     54 C17        -5.6380    3.4110    1.2400 c3        1 MOL     -0.363722
     55 C18        -6.4980    2.2220    0.8110 c         1 MOL      0.502907
     56 O9         -7.5160    1.9030    1.5780 o         1 MOL     -0.585210
     57 H25        -3.6760    3.2010    0.5300 hn        1 MOL      0.176330
     58 H26        -6.2750    4.2980    1.2670 h1        1 MOL      0.177591
     59 H27        -5.1280    3.1930    2.1790 h1        1 MOL      0.177591
     60 N6         -6.2150    1.4160   -0.2190 n         1 MOL     -0.203113
     61 C19        -6.9210    0.1740   -0.4990 c3        1 MOL     -0.074229
     62 C20        -6.6020   -0.9680    0.4820 c         1 MOL      0.434190
     63 O10        -7.1310   -2.0340    0.3110 o         1 MOL     -0.489608
     64 C21        -6.5020   -0.3040   -1.9940 c3        1 MOL     -0.236920
     65 C22        -5.1840   -1.1740   -2.0220 c         1 MOL      0.602785
     66 N7         -4.9350   -1.8400   -3.0870 n         1 MOL     -0.530768
     67 O11        -4.3270   -1.1910   -1.0970 o         1 MOL     -0.583188
     68 H28        -5.4130    1.6690   -0.7770 hn        1 MOL      0.236754
     69 H29        -7.9910    0.3980   -0.4770 h1        1 MOL      0.122569
     70 H30        -6.3110    0.5610   -2.6270 hc        1 MOL      0.096363
     71 H31        -7.2810   -0.9040   -2.4710 hc        1 MOL      0.096363
     72 H32        -5.5940   -1.8790   -3.8500 hn        1 MOL      0.283209
     73 H33        -4.0320   -2.2750   -3.1840 hn        1 MOL      0.283209
     74 N8         -5.7240   -0.7180    1.4770 n         1 MOL     -0.170923
     75 C23        -5.6590   -1.5610    2.6870 c3        1 MOL     -0.161024
     76 C24        -4.7380   -2.7880    2.6470 c         1 MOL      0.485646
     77 O12        -4.8970   -3.6860    3.4170 o         1 MOL     -0.540213
     78 H34        -5.1420    0.1030    1.4870 hn        1 MOL      0.220616
     79 H35        -6.6600   -1.9540    2.8530 h1        1 MOL      0.096854
     80 H36        -5.4890   -0.8190    3.4730 h1        1 MOL      0.096854
     81 N9         -3.7640   -2.8350    1.6930 n         1 MOL     -0.145881
     82 C25        -2.6040   -3.7370    1.6650 c3        1 MOL      0.079950
     83 C26        -1.4080   -3.1150    0.9920 c         1 MOL      0.372394
     84 O13        -1.5550   -2.3460    0.0700 o         1 MOL     -0.497164
     85 C27        -2.8970   -5.0750    0.9680 c3        1 MOL     -0.302145
     86 C28        -3.3350   -5.0150   -0.5170 ca        1 MOL      0.150559
     87 C29        -2.2950   -5.2340   -1.4410 ca        1 MOL     -0.136667
     88 C30        -4.6350   -4.7040   -0.9250 ca        1 MOL     -0.136667
     89 C31        -2.5810   -5.3340   -2.8220 ca        1 MOL     -0.375985
     90 C32        -4.9630   -4.8780   -2.2720 ca        1 MOL     -0.375985
     91 C33        -3.9750   -5.1980   -3.1740 ca        1 MOL      0.448761
     92 O14        -4.3440   -5.5380   -4.4910 oh        1 MOL     -0.522815
     93 H37        -3.6390   -2.0300    1.0910 hn        1 MOL      0.172201
     94 H38        -2.3890   -3.9800    2.7060 h1        1 MOL      0.061905
     95 H39        -3.7540   -5.5800    1.4000 hc        1 MOL      0.097725
     96 H40        -1.9920   -5.6870    1.0660 hc        1 MOL      0.097725
     97 H41        -1.2790   -5.2520   -1.0870 ha        1 MOL      0.170208
     98 H42        -5.4380   -4.4800   -0.2370 ha        1 MOL      0.170208
     99 H43        -1.8150   -5.4350   -3.5710 ha        1 MOL      0.176865
    100 H44        -6.0090   -4.8480   -2.5580 ha        1 MOL      0.176865
    101 H45        -3.6200   -5.9540   -4.9740 ho        1 MOL      0.342721
    102 N10        -0.2230   -3.5080    1.4550 n         1 MOL     -0.341710
    103 C34         1.0620   -2.8680    1.0600 c3        1 MOL      0.039312
    104 C35         2.0170   -3.8160    0.4360 c         1 MOL      0.352298
    105 O15         2.1700   -4.9720    0.7410 o         1 MOL     -0.519469
    106 C36         1.8460   -2.3830    2.2720 c3        1 MOL      0.047169
    107 C37         1.9800   -3.3670    3.4660 c3        1 MOL     -0.530863
    108 C38         0.9540   -1.2190    2.7680 c3        1 MOL     -0.604581
    109 C39         2.8170   -2.9320    4.7460 c3        1 MOL      0.110320
    110 H46        -0.2110   -4.0770    2.2880 hn        1 MOL      0.283574
    111 H47         0.9110   -2.0420    0.3670 h1        1 MOL      0.088188
    112 H48         2.8330   -2.0160    1.9840 hc        1 MOL      0.155502
    113 H49         2.5920   -4.1980    3.0970 hc        1 MOL      0.169148
    114 H50         1.0440   -3.8030    3.7960 hc        1 MOL      0.169148
    115 H51         1.5170   -0.7030    3.5370 hc        1 MOL      0.204056
    116 H52         0.9190   -0.4120    2.0360 hc        1 MOL      0.204056
    117 H53         0.0040   -1.6210    3.1350 hc        1 MOL      0.204056
    118 H54         3.8340   -2.7030    4.4080 hc        1 MOL     -0.003240
    119 H55         2.4990   -1.9710    5.1300 hc        1 MOL     -0.003240
    120 H56         2.7600   -3.5850    5.6120 hc        1 MOL     -0.003240
    121 N11         2.8630   -3.2440   -0.4370 n         1 MOL     -0.147221
    122 C40         4.1510   -3.7500   -0.9740 c3        1 MOL      0.029733
    123 C41         5.3980   -3.1890   -0.2210 c         1 MOL      0.474656
    124 O16         5.2470   -2.3290    0.6330 o         1 MOL     -0.392852
    125 C42         4.2440   -3.3800   -2.4630 c3        1 MOL     -0.058083
    126 O17         4.0910   -1.9810   -2.5790 oh        1 MOL     -0.451824
    127 H57         2.7560   -2.2560   -0.5900 hn        1 MOL      0.071923
    128 H58         4.1580   -4.8350   -0.8860 h1        1 MOL      0.082286
    129 H59         3.4710   -3.8790   -3.0490 h1        1 MOL      0.060553
    130 H60         5.1760   -3.7320   -2.9030 h1        1 MOL      0.060553
    131 H61         4.3160   -1.7270   -3.4790 ho        1 MOL      0.387272
    132 N12         6.5780   -3.7070   -0.5510 n         1 MOL     -0.498626
    133 C43         7.8330   -3.1060   -0.0870 c3        1 MOL      0.257571
    134 C44         7.9750   -1.5760   -0.4770 c         1 MOL      0.278809
    135 O18         8.5660   -0.7960    0.2830 o         1 MOL     -0.479823
    136 C45         9.0170   -4.0120   -0.5640 c3        1 MOL     -0.446452
    137 H62         6.5410   -4.4540   -1.2370 hn        1 MOL      0.292173
    138 H63         7.7790   -3.1560    1.0010 h1        1 MOL      0.076810
    139 H64         9.9680   -3.4720   -0.5690 hc        1 MOL      0.134054
    140 H65         9.1440   -4.9050    0.0430 hc        1 MOL      0.134054
    141 H66         8.7660   -4.2630   -1.6010 hc        1 MOL      0.134054
    142 N13         7.6010   -1.1170   -1.6460 n         1 MOL     -0.210671
    143 C46         7.6260    0.3420   -2.0020 c3        1 MOL      0.085102
    144 C47         6.6990    1.2370   -1.0850 c         1 MOL      0.367739
    145 O19         7.0630    2.3180   -0.7540 o         1 MOL     -0.481445
    146 C48         7.0660    0.4610   -3.3880 c3        1 MOL     -0.346147
    147 H67         7.3950   -1.7910   -2.3760 hn        1 MOL      0.207934
    148 H68         8.6420    0.7400   -1.9500 h1        1 MOL      0.100394
    149 H69         6.0440    0.1020   -3.5260 hc        1 MOL      0.089075
    150 H70         6.9690    1.5070   -3.6580 hc        1 MOL      0.089075
    151 H71         7.7390    0.0010   -4.1120 hc        1 MOL      0.089075
    152 N14         5.4750    0.8110   -0.7680 n         1 MOL     -0.197002
    153 C49         4.6010    1.4370    0.2070 c3        1 MOL     -0.073873
    154 C50         5.2910    1.5220    1.6370 c         1 MOL      0.528924
    155 O20         5.3410    2.5950    2.2480 o         1 MOL     -0.533698
    156 C51         3.3640    0.5790    0.3750 c3        1 MOL      0.274369
    157 C52         2.5810    0.7850   -0.9570 c3        1 MOL      0.189428
    158 C53         1.0440    0.3470   -0.9260 c         1 MOL      0.750138
    159 O21         0.5590   -0.3450   -1.8180 o         1 MOL     -0.717709
    160 O22         0.2590    0.9450   -0.1730 o         1 MOL     -0.717709
    161 H72         5.0130    0.0100   -1.1780 hn        1 MOL      0.203801
    162 H73         4.2750    2.4420   -0.0650 h1        1 MOL      0.046424
    163 H74         2.7350    0.9190    1.1970 hc        1 MOL     -0.120733
    164 H75         3.6710   -0.4490    0.5850 hc        1 MOL     -0.120733
    165 H76         3.1060    0.2030   -1.7080 hc        1 MOL     -0.167357
    166 H77         2.4580    1.8580   -1.1420 hc        1 MOL     -0.167357
    167 N15         5.7970    0.3500    2.0990 n         1 MOL     -0.126394
    168 C54         6.5940    0.1020    3.2920 c3        1 MOL     -0.425254
    169 H78         7.2780    0.9360    3.4510 h1        1 MOL      0.144518
    170 H79         5.9360    0.0030    4.1560 h1        1 MOL      0.144518
    171 H80         7.1650   -0.8170    3.1640 h1        1 MOL      0.144518
    172 H81         5.7130   -0.5150    1.5680 hn        1 MOL      0.188098
    173 Ca1        -1.9110   -0.0700   -1.0970 Ca        1 MOL      1.723726
    174 O23        -1.9590   -2.1840   -2.8900 oh        1 MOL     -0.820702
    175 H82        -1.9900   -2.3240   -3.8370 ho        1 MOL      0.385664
    176 H83        -1.8250   -3.0490   -2.5160 ho        1 MOL      0.385664
@<TRIPOS>BOND
     1    1    2 1   
     2    1    4 1   
     3    1    5 1   
     4    1    6 1   
     5    2    3 2   
     6    2    7 1   
     7    7    8 1   
     8    7   15 1   
     9    8    9 1   
    10    8   11 1   
    11    8   16 1   
    12    9   10 2   
    13    9   19 1   
    14   11   12 1   
    15   11   17 1   
    16   11   18 1   
    17   12   13 1   
    18   12   14 1   
    19   19   20 1   
    20   19   28 1   
    21   20   21 1   
    22   20   23 1   
    23   20   29 1   
    24   21   22 2   
    25   21   41 1   
    26   23   24 1   
    27   23   30 1   
    28   23   31 1   
    29   24   25 1   
    30   24   32 1   
    31   24   33 1   
    32   25   26 1   
    33   25   34 1   
    34   25   35 1   
    35   26   27 1   
    36   26   36 1   
    37   26   37 1   
    38   27   38 1   
    39   27   39 1   
    40   27   40 1   
    41   41   42 1   
    42   41   49 1   
    43   42   43 1   
    44   42   45 1   
    45   42   50 1   
    46   43   44 2   
    47   43   53 1   
    48   45   46 1   
    49   45   51 1   
    50   45   52 1   
    51   46   47 1   
    52   46   48 1   
    53   53   54 1   
    54   53   57 1   
    55   54   55 1   
    56   54   58 1   
    57   54   59 1   
    58   55   56 2   
    59   55   60 1   
    60   60   61 1   
    61   60   68 1   
    62   61   62 1   
    63   61   64 1   
    64   61   69 1   
    65   62   63 2   
    66   62   74 1   
    67   64   65 1   
    68   64   70 1   
    69   64   71 1   
    70   65   66 1   
    71   65   67 2   
    72   66   72 1   
    73   66   73 1   
    74   74   75 1   
    75   74   78 1   
    76   75   76 1   
    77   75   79 1   
    78   75   80 1   
    79   76   77 2   
    80   76   81 1   
    81   81   82 1   
    82   81   93 1   
    83   82   83 1   
    84   82   85 1   
    85   82   94 1   
    86   83   84 2   
    87   83  102 1   
    88   85   86 1   
    89   85   95 1   
    90   85   96 1   
    91   86   87 ar  
    92   86   88 ar  
    93   87   89 ar  
    94   87   97 1   
    95   88   90 ar  
    96   88   98 1   
    97   89   91 ar  
    98   89   99 1   
    99   90   91 ar  
   100   90  100 1   
   101   91   92 1   
   102   92  101 1   
   103  102  103 1   
   104  102  110 1   
   105  103  104 1   
   106  103  106 1   
   107  103  111 1   
   108  104  105 2   
   109  104  121 1   
   110  106  107 1   
   111  106  108 1   
   112  106  112 1   
   113  107  109 1   
   114  107  113 1   
   115  107  114 1   
   116  108  115 1   
   117  108  116 1   
   118  108  117 1   
   119  109  118 1   
   120  109  119 1   
   121  109  120 1   
   122  121  122 1   
   123  121  127 1   
   124  122  123 1   
   125  122  125 1   
   126  122  128 1   
   127  123  124 2   
   128  123  132 1   
   129  125  126 1   
   130  125  129 1   
   131  125  130 1   
   132  126  131 1   
   133  132  133 1   
   134  132  137 1   
   135  133  134 1   
   136  133  136 1   
   137  133  138 1   
   138  134  135 2   
   139  134  142 1   
   140  136  139 1   
   141  136  140 1   
   142  136  141 1   
   143  142  143 1   
   144  142  147 1   
   145  143  144 1   
   146  143  146 1   
   147  143  148 1   
   148  144  145 2   
   149  144  152 1   
   150  146  149 1   
   151  146  150 1   
   152  146  151 1   
   153  152  153 1   
   154  152  161 1   
   155  153  154 1   
   156  153  156 1   
   157  153  162 1   
   158  154  155 2   
   159  154  167 1   
   160  156  157 1   
   161  156  163 1   
   162  156  164 1   
   163  157  158 1   
   164  157  165 1   
   165  157  166 1   
   166  158  159 1   
   167  158  160 1   
   168  167  168 1   
   169  167  172 1   
   170  168  169 1   
   171  168  170 1   
   172  168  171 1   
   173  174  175 1   
   174  174  176 1   
@<TRIPOS>SUBSTRUCTURE
     1 MOL         1 TEMP              0 ****  ****    0 ROOT
