@<TRIPOS>MOLECULE
MOL
  179   176     1     0     0
SMALL
resp


@<TRIPOS>ATOM
      1 C1         -0.3230    4.6720    5.4220 c3        1 MOL     -0.478760
      2 C2         -0.0310    4.1080    4.0460 c         1 MOL      0.672063
      3 O1          1.0440    4.2840    3.4230 o         1 MOL     -0.586545
      4 H1         -0.4360    5.7540    5.3530 hc        1 MOL      0.122367
      5 H2         -1.2440    4.2350    5.8060 hc        1 MOL      0.122367
      6 H3          0.5020    4.4350    6.0940 hc        1 MOL      0.122367
      7 N1         -1.0110    3.3340    3.5830 n         1 MOL     -0.348139
      8 C3         -1.2140    2.9540    2.1870 c3        1 MOL     -0.017978
      9 C4         -1.6110    4.2370    1.4450 c         1 MOL      0.299900
     10 O2         -2.6650    4.7400    1.6960 o         1 MOL     -0.505948
     11 C5         -2.3080    1.8620    2.1180 c3        1 MOL     -0.001388
     12 C6         -2.5620    1.4800    0.6430 c         1 MOL      0.807001
     13 O3         -1.7480    1.7960   -0.2130 o         1 MOL     -0.759349
     14 O4         -3.4780    0.6720    0.3590 o         1 MOL     -0.759349
     15 H4         -1.8610    3.3590    4.1290 hn        1 MOL      0.252898
     16 H5         -0.3100    2.4520    1.8420 h1        1 MOL      0.042755
     17 H6         -3.2460    2.1100    2.5960 hc        1 MOL      0.002447
     18 H7         -1.9470    0.9540    2.5900 hc        1 MOL      0.002447
     19 N2         -0.9500    4.6330    0.3810 n         1 MOL     -0.078072
     20 C7         -1.2380    5.7990   -0.4100 c3        1 MOL     -0.010414
     21 C8         -2.2070    5.6660   -1.5760 c         1 MOL      0.467454
     22 O5         -2.7560    6.6490   -2.0160 o         1 MOL     -0.538284
     23 C9          0.1170    6.4870   -0.8330 c3        1 MOL     -0.238716
     24 C10         1.1750    6.6950    0.2890 c3        1 MOL      0.141515
     25 C11         0.5850    7.5480    1.4570 c3        1 MOL     -0.122142
     26 C12         1.7220    7.7500    2.4860 c3        1 MOL     -0.045663
     27 N3          1.1670    8.2410    3.8310 n4        1 MOL     -0.399434
     28 H8         -0.1750    4.0940    0.0460 hn        1 MOL      0.234057
     29 H9         -1.7060    6.4780    0.3080 h1        1 MOL      0.048931
     30 H10        -0.0650    7.4290   -1.3430 hc        1 MOL      0.093764
     31 H11         0.6740    5.8430   -1.5160 hc        1 MOL      0.093764
     32 H12         2.0270    7.2050   -0.1700 hc        1 MOL     -0.001288
     33 H13         1.5400    5.7770    0.7500 hc        1 MOL     -0.001288
     34 H14        -0.1310    6.8960    1.9520 hc        1 MOL      0.071655
     35 H15         0.1280    8.4530    1.0440 hc        1 MOL      0.071655
     36 H16         2.4530    8.4630    2.1250 hx        1 MOL      0.122907
     37 H17         2.2230    6.7830    2.6250 hx        1 MOL      0.122907
     38 H18         1.0190    9.2410    3.8110 hn        1 MOL      0.329067
     39 H19         0.3020    7.8390    4.1500 hn        1 MOL      0.329067
     40 H20         1.8230    8.2190    4.5960 hn        1 MOL      0.329067
     41 N4         -2.4140    4.4360   -2.0960 n         1 MOL     -0.350757
     42 C13        -3.4660    4.1730   -3.0770 c3        1 MOL      0.131523
     43 C14        -4.7690    3.5610   -2.5320 c         1 MOL      0.349370
     44 O6         -5.7390    3.4760   -3.2200 o         1 MOL     -0.487951
     45 C15        -2.8920    3.2810   -4.2000 c3        1 MOL     -0.235338
     46 C16        -2.3150    1.9840   -3.6070 c         1 MOL      0.863699
     47 O7         -1.0920    1.7220   -3.4680 o         1 MOL     -0.777714
     48 O8         -3.1730    1.1710   -3.1930 o         1 MOL     -0.777714
     49 H21        -1.8680    3.6920   -1.6950 hn        1 MOL      0.213752
     50 H22        -3.7600    5.0750   -3.6260 h1        1 MOL      0.112408
     51 H23        -2.0610    3.8570   -4.6070 hc        1 MOL      0.045950
     52 H24        -3.5640    3.1480   -5.0490 hc        1 MOL      0.045950
     53 N5         -4.8680    3.2870   -1.1990 n         1 MOL     -0.195181
     54 C17        -6.0970    2.9300   -0.4650 c3        1 MOL     -0.172136
     55 C18        -6.8230    1.6220   -0.6670 c         1 MOL      0.604036
     56 O9         -7.9690    1.4930   -0.4510 o         1 MOL     -0.556277
     57 H25        -4.0490    3.4280   -0.6130 hn        1 MOL      0.208848
     58 H26        -6.8530    3.6930   -0.6650 h1        1 MOL      0.085102
     59 H27        -5.8920    3.0840    0.5900 h1        1 MOL      0.085102
     60 N6         -6.0360    0.5790   -1.0540 n         1 MOL     -0.323508
     61 C19        -6.5560   -0.7360   -1.2810 c3        1 MOL      0.063740
     62 C20        -6.5500   -1.6800   -0.0060 c         1 MOL      0.302662
     63 O10        -7.2200   -2.7590   -0.0670 o         1 MOL     -0.490614
     64 C21        -5.9070   -1.3470   -2.5080 c3        1 MOL     -0.247279
     65 C22        -4.7380   -2.2040   -2.2820 c         1 MOL      0.667240
     66 N7         -4.9280   -3.4450   -2.5910 n         1 MOL     -0.719209
     67 O11        -3.7150   -1.8330   -1.7000 o         1 MOL     -0.623040
     68 H28        -5.0470    0.6930   -1.2400 hn        1 MOL      0.264765
     69 H29        -7.6270   -0.7030   -1.5230 h1        1 MOL      0.112172
     70 H30        -5.5460   -0.6270   -3.2430 hc        1 MOL      0.094648
     71 H31        -6.6940   -1.9570   -2.9530 hc        1 MOL      0.094648
     72 H32        -5.7490   -3.8240   -3.0480 hn        1 MOL      0.361780
     73 H33        -4.1470   -4.0720   -2.4570 hn        1 MOL      0.361780
     74 N8         -5.9140   -1.2210    1.0540 n         1 MOL     -0.151262
     75 C23        -5.7010   -2.0630    2.2440 c3        1 MOL     -0.205820
     76 C24        -4.3620   -2.8600    2.3210 c         1 MOL      0.447729
     77 O12        -4.2300   -3.7310    3.1610 o         1 MOL     -0.536583
     78 H34        -5.3750   -0.3890    0.9030 hn        1 MOL      0.154706
     79 H35        -6.4830   -2.8200    2.2960 h1        1 MOL      0.136351
     80 H36        -5.8690   -1.4330    3.1230 h1        1 MOL      0.136351
     81 N9         -3.3790   -2.6990    1.4370 n         1 MOL     -0.219138
     82 C25        -2.1290   -3.3640    1.4350 c3        1 MOL      0.217116
     83 C26        -0.9420   -2.4150    1.2640 c         1 MOL      0.361117
     84 O13        -1.0940   -1.4000    0.5430 o         1 MOL     -0.625946
     85 C27        -2.2140   -4.5040    0.4560 c3        1 MOL      0.059178
     86 C28        -3.1640   -5.6370    0.7940 ca        1 MOL      0.178548
     87 C29        -4.4840   -5.6760    0.4590 ca        1 MOL     -0.350275
     88 C30        -2.6910   -6.7690    1.5390 ca        1 MOL     -0.350275
     89 C31        -5.4000   -6.5930    0.9690 ca        1 MOL     -0.042864
     90 C32        -3.5680   -7.8210    1.9660 ca        1 MOL     -0.042864
     91 C33        -4.8810   -7.7400    1.6470 ca        1 MOL      0.166095
     92 O14        -5.7010   -8.7690    2.0530 oh        1 MOL     -0.443295
     93 H37        -3.5680   -2.0560    0.6810 hn        1 MOL      0.217226
     94 H38        -1.9470   -3.7480    2.4360 h1        1 MOL      0.011729
     95 H39        -1.1940   -4.8530    0.2930 hc        1 MOL     -0.041403
     96 H40        -2.4370   -4.1420   -0.5500 hc        1 MOL     -0.041403
     97 H41        -4.7980   -4.8010   -0.0930 ha        1 MOL      0.144301
     98 H42        -1.6430   -6.7730    1.8170 ha        1 MOL      0.144301
     99 H43        -6.4500   -6.5930    0.7130 ha        1 MOL      0.113927
    100 H44        -3.1400   -8.6050    2.5620 ha        1 MOL      0.113927
    101 H45        -5.1430   -9.3710    2.5590 ho        1 MOL      0.327051
    102 N10         0.2160   -2.7790    1.8610 n         1 MOL     -0.350388
    103 C34         1.4990   -2.1120    1.6880 c3        1 MOL     -0.013021
    104 C35         2.5520   -3.1490    1.2070 c         1 MOL      0.447140
    105 O15         2.7190   -4.1210    1.9060 o         1 MOL     -0.539756
    106 C36         1.8540   -1.3910    3.0100 c3        1 MOL     -0.007572
    107 C37         0.7870   -0.3820    3.3960 c3        1 MOL      0.118002
    108 C38         3.1930   -0.6810    2.6860 c3        1 MOL      0.063652
    109 C39         1.0420    0.2170    4.7510 c3        1 MOL     -0.503358
    110 H46         0.2290   -3.6090    2.4530 hn        1 MOL      0.273176
    111 H47         1.3860   -1.3450    0.9200 h1        1 MOL      0.091739
    112 H48         1.9620   -2.1580    3.7860 hc        1 MOL      0.054217
    113 H49        -0.1580   -0.9150    3.4040 hc        1 MOL      0.031078
    114 H50         0.6620    0.5180    2.7880 hc        1 MOL      0.031078
    115 H51         3.9340   -1.4670    2.5910 hc        1 MOL     -0.032138
    116 H52         3.1290   -0.0070    1.8220 hc        1 MOL     -0.032138
    117 H53         3.4990   -0.0080    3.4880 hc        1 MOL     -0.032138
    118 H54         1.6240    1.1200    4.6100 hc        1 MOL      0.122962
    119 H55         0.1440    0.7500    5.0430 hc        1 MOL      0.122962
    120 H56         1.5780   -0.4540    5.4370 hc        1 MOL      0.122962
    121 N11         3.2660   -2.9480    0.1230 n         1 MOL     -0.182787
    122 C40         4.4290   -3.7090   -0.3810 c3        1 MOL     -0.001700
    123 C41         5.7510   -3.0510    0.1330 c         1 MOL      0.447223
    124 O16         5.7900   -1.9500    0.5940 o         1 MOL     -0.317291
    125 C42         4.2800   -3.9440   -1.8230 c3        1 MOL     -0.138992
    126 O17         4.3540   -2.6170   -2.3730 oh        1 MOL     -0.579979
    127 H57         3.0210   -2.1700   -0.4780 hn        1 MOL      0.220343
    128 H58         4.3620   -4.6710    0.1250 h1        1 MOL      0.039001
    129 H59         3.3190   -4.4290   -1.9640 h1        1 MOL      0.119255
    130 H60         5.1320   -4.4700   -2.2390 h1        1 MOL      0.119255
    131 H61         3.4960   -2.2040   -2.2790 ho        1 MOL      0.417952
    132 N12         6.8860   -3.7650   -0.0520 n         1 MOL     -0.419255
    133 C43         8.2590   -3.2580    0.2060 c3        1 MOL      0.024451
    134 C44         8.6200   -1.8560   -0.3930 c         1 MOL      0.476627
    135 O18         9.0660   -0.9950    0.3250 o         1 MOL     -0.497710
    136 C45         9.2640   -4.2370   -0.3460 c3        1 MOL     -0.158165
    137 H62         6.9510   -4.6170   -0.6020 hn        1 MOL      0.275595
    138 H63         8.3610   -3.3820    1.2890 h1        1 MOL      0.096808
    139 H64         9.4640   -4.1920   -1.4130 hc        1 MOL      0.053623
    140 H65        10.2220   -4.0170    0.1340 hc        1 MOL      0.053623
    141 H66         8.9300   -5.2420   -0.1310 hc        1 MOL      0.053623
    142 N13         8.3460   -1.5870   -1.6760 n         1 MOL     -0.320761
    143 C46         8.4750   -0.4060   -2.4650 c3        1 MOL      0.144985
    144 C47         7.5730    0.7460   -1.9850 c         1 MOL      0.331473
    145 O19         8.2170    1.7760   -1.6840 o         1 MOL     -0.499405
    146 C48         8.3660   -0.7430   -3.9520 c3        1 MOL     -0.258404
    147 H67         7.8900   -2.3360   -2.1880 hn        1 MOL      0.245117
    148 H68         9.4710    0.0140   -2.2980 h1        1 MOL      0.077469
    149 H69         7.3570   -1.1490   -3.9840 hc        1 MOL      0.068531
    150 H70         8.3450    0.0830   -4.6560 hc        1 MOL      0.068531
    151 H71         9.1380   -1.4760   -4.1290 hc        1 MOL      0.068531
    152 N14         6.3070    0.5820   -1.6470 n         1 MOL     -0.151763
    153 C49         5.4760    1.5090   -0.8480 c3        1 MOL     -0.149729
    154 C50         6.0870    1.7150    0.5150 c         1 MOL      0.459481
    155 O20         6.2360    2.8540    0.8950 o         1 MOL     -0.550527
    156 C51         4.0560    0.8740   -0.7330 c3        1 MOL      0.094234
    157 C52         3.2380    0.6850   -2.0230 c3        1 MOL     -0.376026
    158 C53         2.0510   -0.1920   -1.8920 c         1 MOL      0.903192
    159 O21         0.9290    0.2870   -1.5200 o         1 MOL     -0.768545
    160 O22         2.1200   -1.3810   -2.1160 o         1 MOL     -0.768545
    161 H72         5.9860   -0.3440   -1.8780 hn        1 MOL      0.178938
    162 H73         5.4090    2.4680   -1.3550 h1        1 MOL      0.115805
    163 H74         3.5620    1.5830   -0.0760 hc        1 MOL      0.040850
    164 H75         4.2130   -0.1300   -0.3400 hc        1 MOL      0.040850
    165 H76         3.8830    0.2120   -2.7530 hc        1 MOL      0.075686
    166 H77         2.9530    1.6940   -2.3190 hc        1 MOL      0.075686
    167 N15         6.4330    0.6400    1.2210 n         1 MOL      0.028135
    168 C54         6.9430    0.8000    2.5630 c3        1 MOL     -0.271251
    169 H78         6.7420    1.8130    2.9100 h1        1 MOL      0.091470
    170 H79         6.4530    0.0870    3.2260 h1        1 MOL      0.091470
    171 H80         8.0180    0.6200    2.5680 h1        1 MOL      0.091470
    172 H81         6.4520   -0.3150    0.8930 hn        1 MOL      0.047700
    173 Ca1        -1.4880   -0.3820   -1.8330 Ca        1 MOL      1.771504
    174 O23        -1.7120   -1.6140   -4.2470 oh        1 MOL     -0.843189
    175 H82        -1.5040   -1.2800   -5.1160 ho        1 MOL      0.404906
    176 H83        -1.3840   -2.5120   -4.2460 ho        1 MOL      0.404906
    177 O24        -0.1000   -2.5770   -2.1910 oh        1 MOL     -0.843189
    178 H84         0.7740   -2.2710   -2.4190 ho        1 MOL      0.404906
    179 H85         0.0280   -3.4880   -1.9010 ho        1 MOL      0.404906
@<TRIPOS>BOND
     1    1    2 1   
     2    1    4 1   
     3    1    5 1   
     4    1    6 1   
     5    2    3 2   
     6    2    7 1   
     7    7    8 1   
     8    7   15 1   
     9    8    9 1   
    10    8   11 1   
    11    8   16 1   
    12    9   10 2   
    13    9   19 1   
    14   11   12 1   
    15   11   17 1   
    16   11   18 1   
    17   12   13 1   
    18   12   14 1   
    19   19   20 1   
    20   19   28 1   
    21   20   21 1   
    22   20   23 1   
    23   20   29 1   
    24   21   22 2   
    25   21   41 1   
    26   23   24 1   
    27   23   30 1   
    28   23   31 1   
    29   24   25 1   
    30   24   32 1   
    31   24   33 1   
    32   25   26 1   
    33   25   34 1   
    34   25   35 1   
    35   26   27 1   
    36   26   36 1   
    37   26   37 1   
    38   27   38 1   
    39   27   39 1   
    40   27   40 1   
    41   41   42 1   
    42   41   49 1   
    43   42   43 1   
    44   42   45 1   
    45   42   50 1   
    46   43   44 2   
    47   43   53 1   
    48   45   46 1   
    49   45   51 1   
    50   45   52 1   
    51   46   47 1   
    52   46   48 1   
    53   53   54 1   
    54   53   57 1   
    55   54   55 1   
    56   54   58 1   
    57   54   59 1   
    58   55   56 2   
    59   55   60 1   
    60   60   61 1   
    61   60   68 1   
    62   61   62 1   
    63   61   64 1   
    64   61   69 1   
    65   62   63 2   
    66   62   74 1   
    67   64   65 1   
    68   64   70 1   
    69   64   71 1   
    70   65   66 1   
    71   65   67 2   
    72   66   72 1   
    73   66   73 1   
    74   74   75 1   
    75   74   78 1   
    76   75   76 1   
    77   75   79 1   
    78   75   80 1   
    79   76   77 2   
    80   76   81 1   
    81   81   82 1   
    82   81   93 1   
    83   82   83 1   
    84   82   85 1   
    85   82   94 1   
    86   83   84 2   
    87   83  102 1   
    88   85   86 1   
    89   85   95 1   
    90   85   96 1   
    91   86   87 ar  
    92   86   88 ar  
    93   87   89 ar  
    94   87   97 1   
    95   88   90 ar  
    96   88   98 1   
    97   89   91 ar  
    98   89   99 1   
    99   90   91 ar  
   100   90  100 1   
   101   91   92 1   
   102   92  101 1   
   103  102  103 1   
   104  102  110 1   
   105  103  104 1   
   106  103  106 1   
   107  103  111 1   
   108  104  105 2   
   109  104  121 1   
   110  106  107 1   
   111  106  108 1   
   112  106  112 1   
   113  107  109 1   
   114  107  113 1   
   115  107  114 1   
   116  108  115 1   
   117  108  116 1   
   118  108  117 1   
   119  109  118 1   
   120  109  119 1   
   121  109  120 1   
   122  121  122 1   
   123  121  127 1   
   124  122  123 1   
   125  122  125 1   
   126  122  128 1   
   127  123  124 2   
   128  123  132 1   
   129  125  126 1   
   130  125  129 1   
   131  125  130 1   
   132  126  131 1   
   133  132  133 1   
   134  132  137 1   
   135  133  134 1   
   136  133  136 1   
   137  133  138 1   
   138  134  135 2   
   139  134  142 1   
   140  136  139 1   
   141  136  140 1   
   142  136  141 1   
   143  142  143 1   
   144  142  147 1   
   145  143  144 1   
   146  143  146 1   
   147  143  148 1   
   148  144  145 2   
   149  144  152 1   
   150  146  149 1   
   151  146  150 1   
   152  146  151 1   
   153  152  153 1   
   154  152  161 1   
   155  153  154 1   
   156  153  156 1   
   157  153  162 1   
   158  154  155 2   
   159  154  167 1   
   160  156  157 1   
   161  156  163 1   
   162  156  164 1   
   163  157  158 1   
   164  157  165 1   
   165  157  166 1   
   166  158  159 1   
   167  158  160 1   
   168  167  168 1   
   169  167  172 1   
   170  168  169 1   
   171  168  170 1   
   172  168  171 1   
   173  174  175 1   
   174  174  176 1   
   175  177  178 1   
   176  177  179 1   
@<TRIPOS>SUBSTRUCTURE
     1 MOL         1 TEMP              0 ****  ****    0 ROOT
