@<TRIPOS>MOLECULE
MOL
  189   185     1     0     0
SMALL
resp


@<TRIPOS>ATOM
      1 C1          0.3780    2.5710    5.3880 c3        1 MOL     -0.325570
      2 C2         -0.3040    2.4430    3.9740 c         1 MOL      0.696177
      3 O1          0.2950    2.7820    2.9130 o         1 MOL     -0.646595
      4 H1          1.0550    3.4250    5.3890 hc        1 MOL      0.092233
      5 H2         -0.3890    2.7150    6.1500 hc        1 MOL      0.092233
      6 H3          0.9400    1.6630    5.6060 hc        1 MOL      0.092233
      7 N1         -1.4950    1.8860    3.8170 n         1 MOL     -0.617188
      8 C3         -2.1180    1.7510    2.5000 c3        1 MOL      0.339451
      9 C4         -2.7020    2.9760    1.8180 c         1 MOL      0.266525
     10 O2         -3.8220    3.4050    2.1280 o         1 MOL     -0.528755
     11 C5         -3.0800    0.5920    2.4060 c3        1 MOL     -0.180031
     12 C6         -3.8530    0.4180    1.1190 c         1 MOL      0.563657
     13 O3         -5.0260    0.0050    1.2020 o         1 MOL     -0.604438
     14 O4         -3.3160    0.7600    0.0140 o         1 MOL     -0.604438
     15 H4         -2.0640    1.5450    4.5790 hn        1 MOL      0.326903
     16 H5         -1.3570    1.4640    1.7710 h1        1 MOL     -0.022240
     17 H6         -3.7200    0.7370    3.2850 hc        1 MOL      0.034818
     18 H7         -2.5060   -0.2950    2.6570 hc        1 MOL      0.034818
     19 N2         -1.9290    3.5310    0.8790 n         1 MOL     -0.000373
     20 C7         -2.3090    4.8390    0.1790 c3        1 MOL     -0.152004
     21 C8         -3.3110    4.6710   -0.9560 c         1 MOL      0.619003
     22 O5         -3.7030    5.6810   -1.5580 o         1 MOL     -0.577015
     23 C9         -1.0420    5.4620   -0.3650 c3        1 MOL     -0.030786
     24 C10         0.1450    5.6120    0.6290 c3        1 MOL     -0.002758
     25 C11        -0.1620    6.6200    1.6900 c3        1 MOL     -0.008593
     26 C12         1.0330    6.9920    2.5590 c3        1 MOL      0.064535
     27 N3          0.9130    8.2540    3.2200 n4        1 MOL     -0.332357
     28 H8         -1.1050    3.0230    0.5890 hn        1 MOL      0.299635
     29 H9         -2.7120    5.5370    0.9110 h1        1 MOL      0.076403
     30 H10        -1.2630    6.4670   -0.7130 hc        1 MOL      0.034608
     31 H11        -0.6560    4.8850   -1.2030 hc        1 MOL      0.034608
     32 H12         0.9330    6.0210    0.0050 hc        1 MOL      0.014306
     33 H13         0.4320    4.6930    1.1330 hc        1 MOL      0.014306
     34 H14        -0.8950    6.1160    2.3230 hc        1 MOL      0.018688
     35 H15        -0.5260    7.5460    1.2650 hc        1 MOL      0.018688
     36 H16         1.9590    6.9580    1.9860 hx        1 MOL      0.069078
     37 H17         1.0160    6.2430    3.3530 hx        1 MOL      0.069078
     38 H18         0.1120    8.3170    3.8330 hn        1 MOL      0.315586
     39 H19         1.6850    8.4680    3.8290 hn        1 MOL      0.315586
     40 H20         0.9720    9.0470    2.5990 hn        1 MOL      0.315586
     41 N4         -3.9440    3.4800   -1.1030 n         1 MOL     -0.205243
     42 C13        -4.9890    3.3380   -2.1010 c3        1 MOL     -0.078974
     43 C14        -6.3310    3.0510   -1.4870 c         1 MOL      0.481230
     44 O6         -7.3460    3.3100   -2.1790 o         1 MOL     -0.544698
     45 C15        -4.6190    2.1900   -3.0970 c3        1 MOL     -0.059002
     46 C16        -3.2060    2.2660   -3.6330 c         1 MOL      0.651746
     47 O7         -2.9850    3.1520   -4.5220 o         1 MOL     -0.612172
     48 O8         -2.3550    1.5640   -3.1260 o         1 MOL     -0.612172
     49 H21        -3.6550    2.7280   -0.5040 hn        1 MOL     -0.105339
     50 H22        -5.0850    4.3030   -2.5910 h1        1 MOL      0.129067
     51 H23        -5.3300    2.1850   -3.9170 hc        1 MOL      0.053067
     52 H24        -4.6390    1.2410   -2.5640 hc        1 MOL      0.053067
     53 N5         -6.4190    2.4450   -0.3120 n         1 MOL     -0.357567
     54 C17        -7.5980    1.8200    0.1700 c3        1 MOL     -0.157708
     55 C18        -7.7850    0.4550   -0.4830 c         1 MOL      0.553103
     56 O9         -8.8390   -0.0950   -0.2870 o         1 MOL     -0.591454
     57 H25        -5.5870    2.2020    0.2190 hn        1 MOL      0.359139
     58 H26        -8.4310    2.4930   -0.0540 h1        1 MOL      0.114363
     59 H27        -7.5810    1.6840    1.2500 h1        1 MOL      0.114363
     60 N6         -6.8360   -0.0580   -1.3030 n         1 MOL     -0.068785
     61 C19        -6.9900   -1.2970   -1.9480 c3        1 MOL     -0.176852
     62 C20        -7.0900   -2.5800   -1.1340 c         1 MOL      0.513165
     63 O10        -7.3040   -3.6750   -1.6850 o         1 MOL     -0.541855
     64 C21        -5.9410   -1.4520   -2.9940 c3        1 MOL     -0.097883
     65 C22        -4.5490   -1.4980   -2.5400 c         1 MOL      0.811774
     66 O11        -4.2170   -1.8920   -1.4200 o         1 MOL     -0.773351
     67 O12        -3.7320   -1.0390   -3.3100 o         1 MOL     -0.773351
     68 H28        -5.9020    0.3180   -1.1660 hn        1 MOL     -0.066577
     69 H29        -7.9560   -1.2200   -2.4650 h1        1 MOL      0.126056
     70 H30        -6.0840   -0.6610   -3.7340 hc        1 MOL      0.045947
     71 H31        -6.2220   -2.3780   -3.5010 hc        1 MOL      0.045947
     72 N7         -6.9840   -2.4350    0.2010 n         1 MOL     -0.250339
     73 C23        -6.8940   -3.5870    1.1330 c3        1 MOL     -0.254601
     74 C24        -5.4810   -4.1940    1.3250 c         1 MOL      0.558685
     75 O13        -5.3010   -5.1700    2.0970 o         1 MOL     -0.589694
     76 H32        -6.5400   -1.6050    0.5640 hn        1 MOL      0.290540
     77 H33        -7.4940   -4.3640    0.6560 h1        1 MOL      0.130249
     78 H34        -7.2500   -3.2590    2.1010 h1        1 MOL      0.130249
     79 N8         -4.3810   -3.6900    0.7670 n         1 MOL     -0.221715
     80 C25        -3.0160   -4.2750    0.8110 c3        1 MOL     -0.387654
     81 C26        -1.9330   -3.2160    1.0190 c         1 MOL      0.860898
     82 O14        -1.8570   -2.1900    0.4270 o         1 MOL     -0.633054
     83 C27        -2.7100   -5.1460   -0.4240 c3        1 MOL      0.385814
     84 C28        -3.6650   -6.3450   -0.6010 c3        1 MOL     -0.425530
     85 O15        -2.9060   -4.3740   -1.5990 oh        1 MOL     -0.589125
     86 H35        -4.5620   -2.9190    0.1350 hn        1 MOL      0.237635
     87 H36        -2.9220   -5.0390    1.5790 h1        1 MOL      0.156240
     88 H37        -1.6490   -5.3710   -0.4920 h1        1 MOL      0.034588
     89 H38        -3.6840   -3.8650   -1.3550 ho        1 MOL      0.385779
     90 H39        -3.7090   -6.9780    0.2840 hc        1 MOL      0.118203
     91 H40        -4.5790   -6.1090   -1.1470 hc        1 MOL      0.118203
     92 H41        -3.1620   -7.0280   -1.2950 hc        1 MOL      0.118203
     93 N9         -0.9260   -3.6550    1.8010 n         1 MOL     -0.725646
     94 C29         0.3400   -2.9750    1.9730 c3        1 MOL      0.112293
     95 C30         1.5670   -3.5970    1.2690 c         1 MOL      0.527992
     96 O16         1.7740   -4.8650    1.4540 o         1 MOL     -0.577768
     97 C31         0.5300   -2.9560    3.5190 c3        1 MOL      0.055828
     98 C32        -0.5350   -1.9850    4.1810 c3        1 MOL      0.274134
     99 C33         1.9850   -2.4730    3.8430 c3        1 MOL     -0.367553
    100 C34        -0.5050   -2.2660    5.7290 c3        1 MOL     -0.167400
    101 H42        -1.0990   -4.5060    2.3180 hn        1 MOL      0.324220
    102 H43         0.2230   -1.9580    1.5980 h1        1 MOL      0.101608
    103 H44         0.3570   -3.9280    3.9780 hc        1 MOL      0.045809
    104 H45        -1.5660   -2.2310    3.9550 hc        1 MOL     -0.049066
    105 H46        -0.4180   -0.9230    4.0030 hc        1 MOL     -0.049066
    106 H47         2.6780   -3.2730    3.5460 hc        1 MOL      0.078703
    107 H48         2.2440   -1.5380    3.3430 hc        1 MOL      0.078703
    108 H49         2.1330   -2.3610    4.9170 hc        1 MOL      0.078703
    109 H50        -0.8290   -3.2980    5.8590 hc        1 MOL      0.024150
    110 H51         0.4640   -2.0450    6.1820 hc        1 MOL      0.024150
    111 H52        -1.2700   -1.6570    6.2160 hc        1 MOL      0.024150
    112 N10         2.3170   -2.8080    0.5400 n         1 MOL     -0.225103
    113 C35         3.5130   -3.2190   -0.2960 c3        1 MOL     -0.053342
    114 C36         4.8730   -2.7680    0.2820 c         1 MOL      0.427109
    115 O17         4.9540   -2.0570    1.2650 o         1 MOL     -0.485189
    116 C37         3.4160   -2.5830   -1.7350 c3        1 MOL      0.415352
    117 C38         2.5060   -3.3580   -2.6440 c3        1 MOL     -0.410072
    118 O18         2.9680   -1.2680   -1.6440 oh        1 MOL     -0.635902
    119 H53         2.0870   -1.8250    0.5950 hn        1 MOL      0.143040
    120 H54         3.5220   -4.3020   -0.4180 h1        1 MOL      0.063954
    121 H55         4.4200   -2.5750   -2.1730 h1        1 MOL     -0.017489
    122 H56         2.1550   -1.2210   -1.1310 ho        1 MOL      0.424895
    123 H57         2.8960   -4.3680   -2.7710 hc        1 MOL      0.094802
    124 H58         1.4670   -3.3390   -2.3140 hc        1 MOL      0.094802
    125 H59         2.5720   -2.8410   -3.6040 hc        1 MOL      0.094802
    126 N11         5.9180   -3.2270   -0.3060 n         1 MOL     -0.204602
    127 C39         7.3100   -2.7840    0.1120 c3        1 MOL     -0.185513
    128 C40         7.6780   -1.2840    0.0070 c         1 MOL      0.379304
    129 O19         8.2190   -0.6950    0.9280 o         1 MOL     -0.453606
    130 C41         8.3540   -3.5670   -0.7340 c3        1 MOL      0.355711
    131 C42         8.6480   -4.9780   -0.5130 c3        1 MOL     -0.475751
    132 O20         8.2390   -3.4600   -2.1130 oh        1 MOL     -0.689364
    133 H60         5.7180   -3.8610   -1.0590 hn        1 MOL      0.211057
    134 H61         7.4570   -3.0790    1.1510 h1        1 MOL      0.161529
    135 H62         9.2900   -3.0730   -0.4770 h1        1 MOL      0.060666
    136 H63         8.5080   -4.2670   -2.5820 ho        1 MOL      0.444218
    137 H64         9.5890   -5.2730   -0.9660 hc        1 MOL      0.125576
    138 H65         8.4370   -5.2070    0.5290 hc        1 MOL      0.125576
    139 H66         7.9350   -5.6260   -1.0290 hc        1 MOL      0.125576
    140 N12         7.3510   -0.6620   -1.1240 n         1 MOL     -0.263019
    141 C43         7.2600    0.8110   -1.2300 c3        1 MOL     -0.051374
    142 C44         6.4290    1.4840   -0.1070 c         1 MOL      0.404529
    143 O21         6.8610    2.3580    0.5560 o         1 MOL     -0.503582
    144 C45         6.7920    1.2230   -2.6590 c3        1 MOL     -0.042807
    145 C46         6.9040    2.6470   -3.1390 c3        1 MOL     -0.235160
    146 C47         8.3310    3.1510   -3.4410 c3        1 MOL      0.085558
    147 C48         8.8340    2.8450   -4.8100 c3        1 MOL      0.042380
    148 N13        10.2930    2.9360   -4.9430 n4        1 MOL     -0.279995
    149 H67         6.9200   -1.1890   -1.8750 hn        1 MOL      0.224574
    150 H68         8.2520    1.2490   -1.1760 h1        1 MOL      0.091921
    151 H69         5.7710    0.9020   -2.8350 hc        1 MOL      0.037040
    152 H70         7.4580    0.6520   -3.3100 hc        1 MOL      0.037040
    153 H71         6.4500    3.2690   -2.3640 hc        1 MOL      0.104546
    154 H72         6.2960    2.6940   -4.0460 hc        1 MOL      0.104546
    155 H73         9.0410    2.8820   -2.6640 hc        1 MOL      0.019266
    156 H74         8.3430    4.2380   -3.3610 hc        1 MOL      0.019266
    157 H75         8.2300    3.4960   -5.4460 hx        1 MOL      0.062347
    158 H76         8.5930    1.8060   -5.0530 hx        1 MOL      0.062347
    159 H77        10.5680    3.8980   -4.8070 hn        1 MOL      0.247525
    160 H78        10.7760    2.3110   -4.3150 hn        1 MOL      0.247525
    161 H79        10.5470    2.6400   -5.8700 hn        1 MOL      0.247525
    162 N14         5.2510    0.9420    0.1760 n         1 MOL     -0.021155
    163 C49         4.3490    1.4030    1.2650 c3        1 MOL     -0.380944
    164 C50         4.9520    1.1800    2.6750 c         1 MOL      0.620304
    165 O22         4.6420    2.0120    3.5190 o         1 MOL     -0.597764
    166 C51         2.9180    0.7730    1.1990 c3        1 MOL      0.094820
    167 C52         2.0240    1.4440    0.1140 c3        1 MOL     -0.017459
    168 C53         0.6960    0.7770   -0.1690 c         1 MOL      0.785805
    169 O23        -0.2860    1.4530   -0.5250 o         1 MOL     -0.781418
    170 O24         0.6740   -0.4510   -0.2440 o         1 MOL     -0.781418
    171 H80         4.8540    0.2770   -0.4640 hn        1 MOL      0.154909
    172 H81         4.2680    2.4850    1.2000 h1        1 MOL      0.145336
    173 H82         2.3950    1.0470    2.1130 hc        1 MOL      0.024945
    174 H83         2.9720   -0.2980    1.0670 hc        1 MOL      0.024945
    175 H84         2.6430    1.3300   -0.7710 hc        1 MOL     -0.019762
    176 H85         1.8300    2.5090    0.2730 hc        1 MOL     -0.019762
    177 N15         5.8120    0.2090    2.9420 n         1 MOL     -0.224582
    178 C54         6.6030    0.1530    4.2110 c3        1 MOL     -0.228431
    179 H86         6.7790    1.1650    4.5740 h1        1 MOL      0.103618
    180 H87         6.0490   -0.4110    4.9610 h1        1 MOL      0.103618
    181 H88         7.5590   -0.3360    4.0220 h1        1 MOL      0.103618
    182 H89         6.0810   -0.3740    2.1520 hn        1 MOL      0.222456
    183 Ca1        -1.8350   -0.4610   -1.5400 Ca        1 MOL      1.785026
    184 O25        -1.0300   -2.8460   -2.6120 oh        1 MOL     -0.855846
    185 H90        -0.5960   -3.2370   -3.3680 ho        1 MOL      0.409697
    186 H91        -1.6710   -3.5000   -2.3350 ho        1 MOL      0.409697
    187 O26         0.1190   -0.1680   -3.3280 oh        1 MOL     -0.855846
    188 H92         1.0020   -0.5030   -3.2140 ho        1 MOL      0.409697
    189 H93         0.1790    0.4500   -4.0570 ho        1 MOL      0.409697
@<TRIPOS>BOND
     1    1    2 1   
     2    1    4 1   
     3    1    5 1   
     4    1    6 1   
     5    2    3 2   
     6    2    7 1   
     7    7    8 1   
     8    7   15 1   
     9    8    9 1   
    10    8   11 1   
    11    8   16 1   
    12    9   10 2   
    13    9   19 1   
    14   11   12 1   
    15   11   17 1   
    16   11   18 1   
    17   12   13 1   
    18   12   14 1   
    19   19   20 1   
    20   19   28 1   
    21   20   21 1   
    22   20   23 1   
    23   20   29 1   
    24   21   22 2   
    25   21   41 1   
    26   23   24 1   
    27   23   30 1   
    28   23   31 1   
    29   24   25 1   
    30   24   32 1   
    31   24   33 1   
    32   25   26 1   
    33   25   34 1   
    34   25   35 1   
    35   26   27 1   
    36   26   36 1   
    37   26   37 1   
    38   27   38 1   
    39   27   39 1   
    40   27   40 1   
    41   41   42 1   
    42   41   49 1   
    43   42   43 1   
    44   42   45 1   
    45   42   50 1   
    46   43   44 2   
    47   43   53 1   
    48   45   46 1   
    49   45   51 1   
    50   45   52 1   
    51   46   47 1   
    52   46   48 1   
    53   53   54 1   
    54   53   57 1   
    55   54   55 1   
    56   54   58 1   
    57   54   59 1   
    58   55   56 2   
    59   55   60 1   
    60   60   61 1   
    61   60   68 1   
    62   61   62 1   
    63   61   64 1   
    64   61   69 1   
    65   62   63 2   
    66   62   72 1   
    67   64   65 1   
    68   64   70 1   
    69   64   71 1   
    70   65   66 1   
    71   65   67 1   
    72   72   73 1   
    73   72   76 1   
    74   73   74 1   
    75   73   77 1   
    76   73   78 1   
    77   74   75 2   
    78   74   79 1   
    79   79   80 1   
    80   79   86 1   
    81   80   81 1   
    82   80   83 1   
    83   80   87 1   
    84   81   82 2   
    85   81   93 1   
    86   83   84 1   
    87   83   85 1   
    88   83   88 1   
    89   84   90 1   
    90   84   91 1   
    91   84   92 1   
    92   85   89 1   
    93   93   94 1   
    94   93  101 1   
    95   94   95 1   
    96   94   97 1   
    97   94  102 1   
    98   95   96 2   
    99   95  112 1   
   100   97   98 1   
   101   97   99 1   
   102   97  103 1   
   103   98  100 1   
   104   98  104 1   
   105   98  105 1   
   106   99  106 1   
   107   99  107 1   
   108   99  108 1   
   109  100  109 1   
   110  100  110 1   
   111  100  111 1   
   112  112  113 1   
   113  112  119 1   
   114  113  114 1   
   115  113  116 1   
   116  113  120 1   
   117  114  115 2   
   118  114  126 1   
   119  116  117 1   
   120  116  118 1   
   121  116  121 1   
   122  117  123 1   
   123  117  124 1   
   124  117  125 1   
   125  118  122 1   
   126  126  127 1   
   127  126  133 1   
   128  127  128 1   
   129  127  130 1   
   130  127  134 1   
   131  128  129 2   
   132  128  140 1   
   133  130  131 1   
   134  130  132 1   
   135  130  135 1   
   136  131  137 1   
   137  131  138 1   
   138  131  139 1   
   139  132  136 1   
   140  140  141 1   
   141  140  149 1   
   142  141  142 1   
   143  141  144 1   
   144  141  150 1   
   145  142  143 2   
   146  142  162 1   
   147  144  145 1   
   148  144  151 1   
   149  144  152 1   
   150  145  146 1   
   151  145  153 1   
   152  145  154 1   
   153  146  147 1   
   154  146  155 1   
   155  146  156 1   
   156  147  148 1   
   157  147  157 1   
   158  147  158 1   
   159  148  159 1   
   160  148  160 1   
   161  148  161 1   
   162  162  163 1   
   163  162  171 1   
   164  163  164 1   
   165  163  166 1   
   166  163  172 1   
   167  164  165 2   
   168  164  177 1   
   169  166  167 1   
   170  166  173 1   
   171  166  174 1   
   172  167  168 1   
   173  167  175 1   
   174  167  176 1   
   175  168  169 1   
   176  168  170 1   
   177  177  178 1   
   178  177  182 1   
   179  178  179 1   
   180  178  180 1   
   181  178  181 1   
   182  184  185 1   
   183  184  186 1   
   184  187  188 1   
   185  187  189 1   
@<TRIPOS>SUBSTRUCTURE
     1 MOL         1 TEMP              0 ****  ****    0 ROOT
