@<TRIPOS>MOLECULE
MOL
  182   178     1     0     0
SMALL
resp


@<TRIPOS>ATOM
      1 C1          1.7480    3.6300    5.4030 c3        1 MOL     -0.536632
      2 C2          1.3670    3.0140    4.0090 c         1 MOL      0.746693
      3 O1          2.2390    2.9440    3.1010 o         1 MOL     -0.626863
      4 H1          0.9510    3.4280    6.1190 hc        1 MOL      0.135986
      5 H2          2.6770    3.1810    5.7570 hc        1 MOL      0.135986
      6 H3          1.8800    4.7070    5.3010 hc        1 MOL      0.135986
      7 N1          0.1360    2.6380    3.8490 n         1 MOL     -0.493282
      8 C3         -0.4810    2.3670    2.5520 c3        1 MOL      0.025105
      9 C4         -0.6480    3.7030    1.8520 c         1 MOL      0.387034
     10 O2         -1.3120    4.6320    2.4350 o         1 MOL     -0.566303
     11 C5         -1.8170    1.6080    2.8850 c3        1 MOL      0.109043
     12 C6         -2.6600    1.2960    1.6400 c         1 MOL      0.828180
     13 O3         -2.1210    1.5380    0.5210 o         1 MOL     -0.807708
     14 O4         -3.8360    0.9300    1.7160 o         1 MOL     -0.807708
     15 H4         -0.4170    2.5700    4.6840 hn        1 MOL      0.298342
     16 H5          0.1220    1.7320    1.8940 h1        1 MOL      0.018048
     17 H6         -2.4330    2.2280    3.5420 hc        1 MOL     -0.015719
     18 H7         -1.7410    0.6940    3.4700 hc        1 MOL     -0.015719
     19 N2         -0.0540    3.8320    0.6610 n         1 MOL      0.001544
     20 C7          0.1770    5.1440    0.0680 c3        1 MOL     -0.041807
     21 C8         -0.8100    5.6450   -0.9830 c         1 MOL      0.423742
     22 O5         -0.8470    6.8520   -1.2890 o         1 MOL     -0.517154
     23 C9          1.6450    5.1210   -0.4990 c3        1 MOL     -0.041473
     24 C10         2.2850    6.4790   -0.7870 c3        1 MOL     -0.160270
     25 C11         2.1500    7.4240    0.4320 c3        1 MOL     -0.083609
     26 C12         2.7200    6.8870    1.7750 c3        1 MOL      0.067841
     27 N3          2.3200    7.8120    2.8990 n4        1 MOL     -0.399684
     28 H8          0.4480    2.9970    0.3820 hn        1 MOL      0.124715
     29 H9          0.1350    5.8320    0.9040 h1        1 MOL      0.062157
     30 H10         1.7780    4.4610   -1.3540 hc        1 MOL      0.068091
     31 H11         2.2070    4.6280    0.2870 hc        1 MOL      0.068091
     32 H12         1.8270    6.9260   -1.6760 hc        1 MOL      0.088211
     33 H13         3.3680    6.3500   -0.9180 hc        1 MOL      0.088211
     34 H14         1.1140    7.7440    0.5290 hc        1 MOL      0.049909
     35 H15         2.6670    8.3250    0.1120 hc        1 MOL      0.049909
     36 H16         3.8070    6.8740    1.6750 hx        1 MOL      0.086323
     37 H17         2.3340    5.8780    1.9380 hx        1 MOL      0.086323
     38 H18         2.5460    8.7580    2.6450 hn        1 MOL      0.332062
     39 H19         1.3260    7.7750    3.0520 hn        1 MOL      0.332062
     40 H20         2.6320    7.5910    3.8260 hn        1 MOL      0.332062
     41 N4         -1.7110    4.7660   -1.5300 n         1 MOL     -0.301264
     42 C13        -2.9080    4.9410   -2.2620 c3        1 MOL      0.146931
     43 C14        -4.1520    4.5270   -1.4100 c         1 MOL      0.354349
     44 O6         -5.2890    4.7970   -1.8430 o         1 MOL     -0.527990
     45 C15        -2.8080    4.2720   -3.6220 c3        1 MOL     -0.181897
     46 C16        -2.6980    2.7330   -3.5630 c         1 MOL      0.790747
     47 O7         -2.5950    2.1170   -4.6140 o         1 MOL     -0.707181
     48 O8         -2.7530    2.1810   -2.4520 o         1 MOL     -0.707181
     49 H21        -1.6850    3.7910   -1.2700 hn        1 MOL      0.086759
     50 H22        -3.0270    6.0080   -2.4510 h1        1 MOL      0.071647
     51 H23        -1.8990    4.6990   -4.0560 hc        1 MOL      0.051661
     52 H24        -3.6020    4.6800   -4.2530 hc        1 MOL      0.051661
     53 N5         -4.0390    3.8820   -0.2350 n         1 MOL     -0.081114
     54 C17        -5.1500    3.5490    0.6240 c3        1 MOL     -0.501827
     55 C18        -6.0370    2.3730    0.0530 c         1 MOL      0.699134
     56 O9         -7.1460    2.1560    0.5240 o         1 MOL     -0.589867
     57 H25        -3.1120    3.6120    0.0750 hn        1 MOL      0.134263
     58 H26        -5.7540    4.4540    0.7220 h1        1 MOL      0.204816
     59 H27        -4.6120    3.2720    1.5270 h1        1 MOL      0.204816
     60 N6         -5.5510    1.5720   -0.9040 n         1 MOL     -0.420660
     61 C19        -6.2970    0.4080   -1.3950 c3        1 MOL      0.183053
     62 C20        -6.5330   -0.6870   -0.4160 c         1 MOL      0.152989
     63 O10        -7.3280   -1.6070   -0.6880 o         1 MOL     -0.459650
     64 C21        -5.6930   -0.1990   -2.6760 c3        1 MOL     -0.238588
     65 C22        -4.6590   -1.2660   -2.3380 c         1 MOL      0.441115
     66 N7         -4.7990   -2.4220   -2.9160 n         1 MOL     -0.713375
     67 O11        -3.7050   -1.0210   -1.6510 o         1 MOL     -0.611823
     68 H28        -4.6380    1.7990   -1.2760 hn        1 MOL      0.273920
     69 H29        -7.2510    0.8260   -1.7010 h1        1 MOL      0.083336
     70 H30        -5.3110    0.4840   -3.4400 hc        1 MOL      0.091971
     71 H31        -6.5690   -0.7030   -3.1060 hc        1 MOL      0.091971
     72 H32        -5.6700   -2.6120   -3.3990 hn        1 MOL      0.383618
     73 H33        -3.9930   -3.0260   -2.9750 hn        1 MOL      0.383618
     74 N8         -5.7850   -0.6040    0.6890 n         1 MOL      0.198916
     75 C23        -5.9860   -1.4280    1.9180 c3        1 MOL     -0.358733
     76 C24        -4.9370   -2.5090    2.1130 c         1 MOL      0.626761
     77 O12        -5.0320   -3.3610    3.0150 o         1 MOL     -0.574058
     78 H34        -5.0850    0.1220    0.7610 hn        1 MOL      0.154237
     79 H35        -6.9710   -1.8080    2.1640 h1        1 MOL      0.138830
     80 H36        -5.9620   -0.8200    2.8200 h1        1 MOL      0.138830
     81 N9         -3.8530   -2.4330    1.3530 n         1 MOL     -0.432898
     82 C25        -2.7140   -3.3490    1.3570 c3        1 MOL      0.146634
     83 C26        -1.3370   -2.6020    1.2080 c         1 MOL      0.596018
     84 O13        -1.3730   -1.5120    0.6730 o         1 MOL     -0.793387
     85 C27        -2.9660   -4.3640    0.1860 c3        1 MOL      0.038135
     86 C28        -4.1780   -5.2370    0.3610 ca        1 MOL      0.044419
     87 C29        -5.3990   -4.9320   -0.2180 ca        1 MOL     -0.271427
     88 C30        -4.1370   -6.3830    1.1610 ca        1 MOL     -0.271427
     89 C31        -6.5510   -5.6620    0.0260 ca        1 MOL     -0.068417
     90 C32        -5.2780   -7.1570    1.4660 ca        1 MOL     -0.068417
     91 C33        -6.4850   -6.7920    0.8490 ca        1 MOL      0.181148
     92 O14        -7.6370   -7.4320    1.1500 oh        1 MOL     -0.444647
     93 H37        -3.8850   -1.7140    0.6530 hn        1 MOL      0.358652
     94 H38        -2.7340   -3.8920    2.2980 h1        1 MOL      0.026005
     95 H39        -2.0580   -4.9460    0.0660 hc        1 MOL     -0.004388
     96 H40        -2.9380   -3.8920   -0.8040 hc        1 MOL     -0.004388
     97 H41        -5.4870   -4.1070   -0.9100 ha        1 MOL      0.135505
     98 H42        -3.2180   -6.7150    1.6370 ha        1 MOL      0.135505
     99 H43        -7.4860   -5.3980   -0.4480 ha        1 MOL      0.096213
    100 H44        -5.2040   -8.1720    1.8370 ha        1 MOL      0.096213
    101 H45        -7.4980   -8.3050    1.5410 ho        1 MOL      0.346330
    102 N10        -0.2630   -3.2210    1.6040 n         1 MOL     -0.499997
    103 C34         1.1520   -2.7240    1.5700 c3        1 MOL      0.132029
    104 C35         2.0330   -3.7660    0.9080 c         1 MOL      0.437851
    105 O15         2.0990   -4.8960    1.4330 o         1 MOL     -0.514762
    106 C36         1.6180   -2.4490    3.0000 c3        1 MOL     -0.039629
    107 C37         0.8490   -1.2510    3.5050 c3        1 MOL      0.134107
    108 C38         3.0940   -2.1570    3.1120 c3        1 MOL     -0.045996
    109 C39         1.2240   -0.8620    4.9020 c3        1 MOL     -0.358178
    110 H46        -0.4060   -4.0270    2.1900 hn        1 MOL      0.287258
    111 H47         1.2230   -1.7500    1.0830 h1        1 MOL      0.128824
    112 H48         1.3230   -3.2590    3.6690 hc        1 MOL      0.036092
    113 H49        -0.2220   -1.4680    3.4090 hc        1 MOL      0.012150
    114 H50         1.0180   -0.3700    2.8830 hc        1 MOL      0.012150
    115 H51         3.7740   -2.9160    2.7280 hc        1 MOL      0.008041
    116 H52         3.2340   -1.1930    2.6250 hc        1 MOL      0.008041
    117 H53         3.4120   -1.9280    4.1270 hc        1 MOL      0.008041
    118 H54         2.0800   -0.1850    4.8140 hc        1 MOL      0.086012
    119 H55         0.5430   -0.1530    5.3810 hc        1 MOL      0.086012
    120 H56         1.3820   -1.7340    5.5480 hc        1 MOL      0.086012
    121 N11         2.6320   -3.3320   -0.2230 n         1 MOL     -0.256283
    122 C40         3.7870   -4.0190   -0.8110 c3        1 MOL      0.109263
    123 C41         5.1890   -3.6350   -0.3580 c         1 MOL      0.361672
    124 O16         5.2950   -2.5610    0.2700 o         1 MOL     -0.341324
    125 C42         3.8070   -3.9960   -2.3630 c3        1 MOL     -0.190947
    126 O17         4.1280   -2.6740   -2.7620 oh        1 MOL     -0.427636
    127 H57         2.2650   -2.5510   -0.7500 hn        1 MOL      0.146054
    128 H58         3.5840   -5.0560   -0.5430 h1        1 MOL      0.034558
    129 H59         2.8230   -4.1670   -2.8020 h1        1 MOL      0.105129
    130 H60         4.5530   -4.6580   -2.8090 h1        1 MOL      0.105129
    131 H61         3.9240   -2.5130   -3.6870 ho        1 MOL      0.383333
    132 N12         6.1680   -4.3810   -0.7680 n         1 MOL     -0.373618
    133 C43         7.5320   -4.0620   -0.4130 c3        1 MOL      0.151818
    134 C44         7.9670   -2.7050   -1.0220 c         1 MOL      0.492092
    135 O18         8.6790   -1.9460   -0.3800 o         1 MOL     -0.510022
    136 C45         8.3840   -5.2510   -0.8100 c3        1 MOL     -0.312880
    137 H62         5.9310   -5.2080   -1.2770 hn        1 MOL      0.279724
    138 H63         7.6550   -3.8610    0.6550 h1        1 MOL      0.077653
    139 H64         8.0570   -6.1300   -0.2600 hc        1 MOL      0.095321
    140 H65         8.3360   -5.2740   -1.8980 hc        1 MOL      0.095321
    141 H66         9.4240   -5.0480   -0.5520 hc        1 MOL      0.095321
    142 N13         7.4260   -2.3060   -2.1990 n         1 MOL     -0.408630
    143 C46         7.7420   -0.9290   -2.7010 c3        1 MOL      0.021317
    144 C47         7.1140    0.2270   -1.8150 c         1 MOL      0.370864
    145 O19         7.7010    1.2910   -1.6240 o         1 MOL     -0.516629
    146 C48         7.2060   -0.6580   -4.1790 c3        1 MOL     -0.280263
    147 H67         6.8400   -2.9030   -2.7490 hn        1 MOL      0.261206
    148 H68         8.8130   -0.7530   -2.6080 h1        1 MOL      0.124835
    149 H69         7.7570    0.1920   -4.5810 hc        1 MOL      0.084935
    150 H70         7.5040   -1.4450   -4.8730 hc        1 MOL      0.084935
    151 H71         6.1230   -0.6190   -4.2540 hc        1 MOL      0.084935
    152 N14         5.9910   -0.0200   -1.1760 n         1 MOL     -0.068124
    153 C49         5.4450    0.9100   -0.1310 c3        1 MOL     -0.151252
    154 C50         6.2350    0.8140    1.1860 c         1 MOL      0.510808
    155 O20         6.4220    1.9240    1.7970 o         1 MOL     -0.579883
    156 C51         3.9550    0.5900    0.0730 c3        1 MOL     -0.070678
    157 C52         3.1630    0.7160   -1.2480 c3        1 MOL     -0.034052
    158 C53         1.6890    0.3840   -0.9170 c         1 MOL      0.646818
    159 O21         1.2460   -0.7840   -1.1370 o         1 MOL     -0.661053
    160 O22         0.9320    1.2710   -0.5790 o         1 MOL     -0.661053
    161 H72         5.5370   -0.9130   -1.3020 hn        1 MOL      0.121718
    162 H73         5.4680    1.9090   -0.5600 h1        1 MOL      0.118474
    163 H74         3.5910    1.3110    0.8110 hc        1 MOL      0.065293
    164 H75         3.8520   -0.4020    0.4950 hc        1 MOL      0.065293
    165 H76         3.4870    0.0060   -2.0070 hc        1 MOL     -0.015972
    166 H77         3.2820    1.6970   -1.7060 hc        1 MOL     -0.015972
    167 N15         6.5850   -0.3710    1.6730 n         1 MOL     -0.088016
    168 C54         7.4410   -0.4470    2.8500 c3        1 MOL     -0.268365
    169 H78         6.8270   -0.6120    3.7350 h1        1 MOL      0.105459
    170 H79         8.1420   -1.2740    2.7360 h1        1 MOL      0.105459
    171 H80         7.9930    0.4860    2.9600 h1        1 MOL      0.105459
    172 H81         6.2950   -1.2050    1.1830 hn        1 MOL      0.108758
    173 Ca1        -1.2850    0.1380   -1.4820 Ca        1 MOL      1.784017
    174 O23        -2.2270   -0.4070   -4.2870 oh        1 MOL     -0.819770
    175 H82        -2.9980   -0.8210   -4.6670 ho        1 MOL      0.401848
    176 H83        -2.4270    0.5270   -4.2820 ho        1 MOL      0.401848
    177 O24        -0.3120   -2.0360   -2.6270 oh        1 MOL     -0.819770
    178 H84        -0.4060   -2.9900   -2.5850 ho        1 MOL      0.401848
    179 H85         0.5890   -1.8690   -2.3660 ho        1 MOL      0.401848
    180 O25         0.3060    0.8860   -3.7090 oh        1 MOL     -0.819770
    181 H86         0.2400    0.4490   -4.5610 ho        1 MOL      0.401848
    182 H87         0.6330    1.7610   -3.9180 ho        1 MOL      0.401848
@<TRIPOS>BOND
     1    1    2 1   
     2    1    4 1   
     3    1    5 1   
     4    1    6 1   
     5    2    3 2   
     6    2    7 1   
     7    7    8 1   
     8    7   15 1   
     9    8    9 1   
    10    8   11 1   
    11    8   16 1   
    12    9   10 2   
    13    9   19 1   
    14   11   12 1   
    15   11   17 1   
    16   11   18 1   
    17   12   13 1   
    18   12   14 1   
    19   19   20 1   
    20   19   28 1   
    21   20   21 1   
    22   20   23 1   
    23   20   29 1   
    24   21   22 2   
    25   21   41 1   
    26   23   24 1   
    27   23   30 1   
    28   23   31 1   
    29   24   25 1   
    30   24   32 1   
    31   24   33 1   
    32   25   26 1   
    33   25   34 1   
    34   25   35 1   
    35   26   27 1   
    36   26   36 1   
    37   26   37 1   
    38   27   38 1   
    39   27   39 1   
    40   27   40 1   
    41   41   42 1   
    42   41   49 1   
    43   42   43 1   
    44   42   45 1   
    45   42   50 1   
    46   43   44 2   
    47   43   53 1   
    48   45   46 1   
    49   45   51 1   
    50   45   52 1   
    51   46   47 1   
    52   46   48 1   
    53   53   54 1   
    54   53   57 1   
    55   54   55 1   
    56   54   58 1   
    57   54   59 1   
    58   55   56 2   
    59   55   60 1   
    60   60   61 1   
    61   60   68 1   
    62   61   62 1   
    63   61   64 1   
    64   61   69 1   
    65   62   63 2   
    66   62   74 1   
    67   64   65 1   
    68   64   70 1   
    69   64   71 1   
    70   65   66 1   
    71   65   67 2   
    72   66   72 1   
    73   66   73 1   
    74   74   75 1   
    75   74   78 1   
    76   75   76 1   
    77   75   79 1   
    78   75   80 1   
    79   76   77 2   
    80   76   81 1   
    81   81   82 1   
    82   81   93 1   
    83   82   83 1   
    84   82   85 1   
    85   82   94 1   
    86   83   84 2   
    87   83  102 1   
    88   85   86 1   
    89   85   95 1   
    90   85   96 1   
    91   86   87 ar  
    92   86   88 ar  
    93   87   89 ar  
    94   87   97 1   
    95   88   90 ar  
    96   88   98 1   
    97   89   91 ar  
    98   89   99 1   
    99   90   91 ar  
   100   90  100 1   
   101   91   92 1   
   102   92  101 1   
   103  102  103 1   
   104  102  110 1   
   105  103  104 1   
   106  103  106 1   
   107  103  111 1   
   108  104  105 2   
   109  104  121 1   
   110  106  107 1   
   111  106  108 1   
   112  106  112 1   
   113  107  109 1   
   114  107  113 1   
   115  107  114 1   
   116  108  115 1   
   117  108  116 1   
   118  108  117 1   
   119  109  118 1   
   120  109  119 1   
   121  109  120 1   
   122  121  122 1   
   123  121  127 1   
   124  122  123 1   
   125  122  125 1   
   126  122  128 1   
   127  123  124 2   
   128  123  132 1   
   129  125  126 1   
   130  125  129 1   
   131  125  130 1   
   132  126  131 1   
   133  132  133 1   
   134  132  137 1   
   135  133  134 1   
   136  133  136 1   
   137  133  138 1   
   138  134  135 2   
   139  134  142 1   
   140  136  139 1   
   141  136  140 1   
   142  136  141 1   
   143  142  143 1   
   144  142  147 1   
   145  143  144 1   
   146  143  146 1   
   147  143  148 1   
   148  144  145 2   
   149  144  152 1   
   150  146  149 1   
   151  146  150 1   
   152  146  151 1   
   153  152  153 1   
   154  152  161 1   
   155  153  154 1   
   156  153  156 1   
   157  153  162 1   
   158  154  155 2   
   159  154  167 1   
   160  156  157 1   
   161  156  163 1   
   162  156  164 1   
   163  157  158 1   
   164  157  165 1   
   165  157  166 1   
   166  158  159 1   
   167  158  160 1   
   168  167  168 1   
   169  167  172 1   
   170  168  169 1   
   171  168  170 1   
   172  168  171 1   
   173  174  175 1   
   174  174  176 1   
   175  177  178 1   
   176  177  179 1   
   177  180  181 1   
   178  180  182 1   
@<TRIPOS>SUBSTRUCTURE
     1 MOL         1 TEMP              0 ****  ****    0 ROOT
