@<TRIPOS>MOLECULE
MOL
  189   185     1     0     0
SMALL
resp


@<TRIPOS>ATOM
      1 C1          0.1520    3.2680   -4.7470 c3        1 MOL     -0.278035
      2 C2          0.6540    3.0830   -3.3020 c         1 MOL      0.577566
      3 O1         -0.0280    3.3700   -2.2840 o         1 MOL     -0.529025
      4 H1         -0.9380    3.2730   -4.7550 hc        1 MOL      0.075433
      5 H2          0.5230    4.2130   -5.1430 hc        1 MOL      0.075433
      6 H3          0.5150    2.4470   -5.3660 hc        1 MOL      0.075433
      7 N1          1.8630    2.4860   -3.2910 n         1 MOL     -0.634583
      8 C3          2.5330    1.8810   -2.0350 c3        1 MOL      0.380648
      9 C4          3.1880    2.9750   -1.2660 c         1 MOL      0.183923
     10 O2          4.3860    3.2410   -1.3870 o         1 MOL     -0.477699
     11 C5          3.5180    0.7230   -2.4260 c3        1 MOL     -0.298355
     12 C6          4.1600    0.0660   -1.1660 c         1 MOL      0.781528
     13 O3          5.2480   -0.5660   -1.2600 o         1 MOL     -0.670337
     14 O4          3.4900    0.1080   -0.1090 o         1 MOL     -0.670337
     15 H4          2.1870    2.1580   -4.1860 hn        1 MOL      0.317866
     16 H5          1.6700    1.5300   -1.4720 h1        1 MOL     -0.016089
     17 H6          4.3330    1.0420   -3.0800 hc        1 MOL      0.066575
     18 H7          2.8930   -0.1060   -2.7790 hc        1 MOL      0.066575
     19 N2          2.3540    3.6560   -0.4870 n         1 MOL     -0.106102
     20 C7          2.8220    4.8220    0.2410 c3        1 MOL      0.019914
     21 C8          3.7210    4.5290    1.3950 c         1 MOL      0.410580
     22 O5          4.5480    5.3810    1.7480 o         1 MOL     -0.570378
     23 C9          1.5660    5.5810    0.7520 c3        1 MOL     -0.124401
     24 C10         0.9210    6.4020   -0.4280 c3        1 MOL      0.227218
     25 C11         1.8000    7.3570   -1.2100 c3        1 MOL     -0.327653
     26 C12         2.3220    6.8140   -2.5600 c3        1 MOL      0.141541
     27 N3          3.3400    7.6970   -3.1520 n4        1 MOL     -0.379194
     28 H8          1.5550    3.0860   -0.2350 hn        1 MOL      0.302441
     29 H9          3.3750    5.5340   -0.3770 h1        1 MOL      0.041126
     30 H10         1.8800    6.2690    1.5240 hc        1 MOL      0.050390
     31 H11         0.8620    4.8570    1.1700 hc        1 MOL      0.050390
     32 H12         0.0950    6.9920   -0.0180 hc        1 MOL     -0.021083
     33 H13         0.5460    5.6350   -1.1030 hc        1 MOL     -0.021083
     34 H14         2.6640    7.5430   -0.5700 hc        1 MOL      0.090246
     35 H15         1.2930    8.3040   -1.3940 hc        1 MOL      0.090246
     36 H16         1.4730    6.6860   -3.2370 hx        1 MOL      0.069711
     37 H17         2.7450    5.8140   -2.5400 hx        1 MOL      0.069711
     38 H18         3.8580    7.3640   -3.9600 hn        1 MOL      0.328189
     39 H19         2.9820    8.6020   -3.4100 hn        1 MOL      0.328189
     40 H20         4.0310    7.9020   -2.4410 hn        1 MOL      0.328189
     41 N4          3.7150    3.3010    1.9420 n         1 MOL     -0.189255
     42 C13         4.6320    2.9000    2.9790 c3        1 MOL     -0.062941
     43 C14         5.9550    2.2620    2.4480 c         1 MOL      0.357886
     44 O6          6.8450    1.9280    3.2650 o         1 MOL     -0.514346
     45 C15         3.9490    2.2280    4.1230 c3        1 MOL     -0.204307
     46 C16         2.7550    1.3170    3.8730 c         1 MOL      0.747403
     47 O7          2.4940    0.9510    2.7500 o         1 MOL     -0.692431
     48 O8          1.9770    1.1870    4.7940 o         1 MOL     -0.692431
     49 H21         3.0160    2.6380    1.6470 hn        1 MOL      0.189647
     50 H22         5.0900    3.7530    3.4830 h1        1 MOL      0.125133
     51 H23         3.6790    2.9330    4.9080 hc        1 MOL      0.069540
     52 H24         4.6330    1.6100    4.7110 hc        1 MOL      0.069540
     53 N5          6.1010    2.0410    1.1480 n         1 MOL     -0.094418
     54 C17         7.2610    1.3330    0.5780 c3        1 MOL     -0.146622
     55 C18         7.5430   -0.0860    1.1130 c         1 MOL      0.545833
     56 O9          8.7110   -0.3250    1.3250 o         1 MOL     -0.564563
     57 H25         5.4590    2.5090    0.5160 hn        1 MOL      0.140691
     58 H26         8.1780    1.9100    0.6980 h1        1 MOL      0.076900
     59 H27         7.0230    1.2330   -0.4780 h1        1 MOL      0.076900
     60 N6          6.4900   -0.8890    1.2990 n         1 MOL     -0.129496
     61 C19         6.6560   -2.2760    1.8520 c3        1 MOL     -0.068676
     62 C20         6.6870   -3.3750    0.8120 c         1 MOL      0.398765
     63 O10         7.2090   -4.4770    1.1030 o         1 MOL     -0.536966
     64 C21         5.5540   -2.5190    2.9680 c3        1 MOL     -0.208269
     65 C22         4.1530   -2.3090    2.4210 c         1 MOL      0.740687
     66 O11         3.7710   -2.6310    1.2540 o         1 MOL     -0.674178
     67 O12         3.2520   -1.9560    3.2320 o         1 MOL     -0.674178
     68 H28         5.6740   -0.6240    0.7630 hn        1 MOL     -0.007698
     69 H29         7.6380   -2.3420    2.3210 h1        1 MOL      0.129479
     70 H30         5.8070   -1.9110    3.8370 hc        1 MOL      0.084861
     71 H31         5.5260   -3.5620    3.2970 hc        1 MOL      0.084861
     72 N7          6.3350   -3.0560   -0.4180 n         1 MOL     -0.201222
     73 C23         6.2780   -4.0710   -1.4760 c3        1 MOL     -0.235276
     74 C24         4.9550   -4.6520   -1.7330 c         1 MOL      0.580317
     75 O13         4.8270   -5.5890   -2.5170 o         1 MOL     -0.598447
     76 H32         5.9240   -2.1560   -0.6090 hn        1 MOL      0.245891
     77 H33         6.8550   -4.9750   -1.3160 h1        1 MOL      0.115427
     78 H34         6.4060   -3.6380   -2.4700 h1        1 MOL      0.115427
     79 N8          3.9270   -4.0250   -1.2150 n         1 MOL     -0.294336
     80 C25         2.5280   -4.5260   -1.3210 c3        1 MOL     -0.191401
     81 C26         1.5700   -3.3730   -1.3440 c         1 MOL      0.592041
     82 O14         1.7960   -2.2860   -0.8420 o         1 MOL     -0.653613
     83 C27         2.2930   -5.5250   -0.1050 c3        1 MOL      0.485820
     84 C28         2.9590   -6.9340   -0.2780 c3        1 MOL     -0.517316
     85 O15         2.6130   -4.9800    1.1610 oh        1 MOL     -0.615938
     86 H35         4.0130   -3.1170   -0.7780 hn        1 MOL      0.315859
     87 H36         2.4030   -5.1170   -2.2280 h1        1 MOL      0.099164
     88 H37         1.2260   -5.7270   -0.0770 h1        1 MOL     -0.042113
     89 H38         3.0990   -4.1640    1.0450 ho        1 MOL      0.391756
     90 H39         2.6710   -7.5850    0.5490 hc        1 MOL      0.137752
     91 H40         2.7040   -7.3730   -1.2440 hc        1 MOL      0.137752
     92 H41         4.0370   -6.9370   -0.1670 hc        1 MOL      0.137752
     93 N9          0.4250   -3.6150   -1.8790 n         1 MOL     -0.520939
     94 C29        -0.6300   -2.5600   -2.1460 c3        1 MOL      0.008483
     95 C30        -1.9450   -3.0270   -1.4680 c         1 MOL      0.536528
     96 O16        -2.5380   -4.0610   -1.9150 o         1 MOL     -0.559407
     97 C31        -0.7760   -2.2190   -3.6240 c3        1 MOL      0.213821
     98 C32         0.5010   -1.6190   -4.1540 c3        1 MOL      0.038646
     99 C33        -1.9980   -1.2410   -3.7770 c3        1 MOL     -0.365107
    100 C34         0.6970   -1.5560   -5.6550 c3        1 MOL     -0.170783
    101 H42         0.4120   -4.5560   -2.2400 hn        1 MOL      0.293838
    102 H43        -0.3180   -1.6280   -1.6830 h1        1 MOL      0.064363
    103 H44        -0.9300   -3.1480   -4.1720 hc        1 MOL     -0.000229
    104 H45         1.3710   -2.0590   -3.6730 hc        1 MOL      0.026718
    105 H46         0.5490   -0.5900   -3.8220 hc        1 MOL      0.026718
    106 H47        -2.9450   -1.7540   -3.6010 hc        1 MOL      0.078166
    107 H48        -1.9080   -0.4240   -3.0580 hc        1 MOL      0.078166
    108 H49        -2.0320   -0.7220   -4.7330 hc        1 MOL      0.078166
    109 H50         0.8280   -2.5780   -5.9990 hc        1 MOL      0.034219
    110 H51        -0.1340   -1.1240   -6.2130 hc        1 MOL      0.034219
    111 H52         1.6380   -1.0370   -5.8520 hc        1 MOL      0.034219
    112 N10        -2.4640   -2.2350   -0.5470 n         1 MOL     -0.366250
    113 C35        -3.7340   -2.4840    0.1100 c3        1 MOL      0.036353
    114 C36        -5.0290   -2.1640   -0.7030 c         1 MOL      0.296185
    115 O17        -4.9890   -1.4970   -1.7320 o         1 MOL     -0.328833
    116 C37        -3.8270   -1.8000    1.4870 c3        1 MOL      0.122468
    117 C38        -2.7100   -2.1590    2.4770 c3        1 MOL     -0.414361
    118 O18        -3.7240   -0.4600    1.2370 oh        1 MOL     -0.417306
    119 H53        -2.0680   -1.3030   -0.4760 hn        1 MOL      0.359919
    120 H54        -3.7650   -3.5450    0.3620 h1        1 MOL      0.100296
    121 H55        -4.8330   -1.9620    1.8590 h1        1 MOL     -0.006877
    122 H56        -3.9520   -0.0240    2.0650 ho        1 MOL      0.416328
    123 H57        -2.8530   -3.2250    2.6750 hc        1 MOL      0.121339
    124 H58        -1.7500   -1.9870    2.0010 hc        1 MOL      0.121339
    125 H59        -2.8510   -1.6180    3.4050 hc        1 MOL      0.121339
    126 N11        -6.2010   -2.4950   -0.1940 n         1 MOL     -0.163619
    127 C39        -7.5000   -2.0470   -0.7200 c3        1 MOL     -0.037103
    128 C40        -7.6480   -0.5290   -0.4850 c         1 MOL      0.317416
    129 O19        -8.1710    0.1720   -1.3780 o         1 MOL     -0.456744
    130 C41        -8.6180   -2.9290   -0.1560 c3        1 MOL      0.426517
    131 C42        -9.8380   -2.7700   -1.0350 c3        1 MOL     -0.387028
    132 O20        -8.2950   -4.2990   -0.2660 oh        1 MOL     -0.584142
    133 H60        -6.1530   -3.1630    0.5680 hn        1 MOL      0.155589
    134 H61        -7.4000   -2.1450   -1.7980 h1        1 MOL      0.118745
    135 H62        -8.8900   -2.5950    0.8410 h1        1 MOL     -0.074671
    136 H63        -9.0340   -4.6920    0.1960 ho        1 MOL      0.384671
    137 H64       -10.5740   -3.4610   -0.6180 hc        1 MOL      0.101159
    138 H65       -10.2410   -1.7600   -1.0250 hc        1 MOL      0.101159
    139 H66        -9.6850   -3.1860   -2.0240 hc        1 MOL      0.101159
    140 N12        -7.2320    0.0050    0.6330 n         1 MOL     -0.259312
    141 C43        -7.3770    1.4640    0.9850 c3        1 MOL     -0.103291
    142 C44        -6.2060    2.2200    0.1880 c         1 MOL      0.418871
    143 O21        -6.3820    3.4170   -0.1450 o         1 MOL     -0.505559
    144 C45        -7.2320    1.7190    2.4740 c3        1 MOL      0.106205
    145 C46        -8.3180    0.9680    3.2430 c3        1 MOL      0.012011
    146 C47        -8.2170    1.2570    4.7970 c3        1 MOL     -0.054462
    147 C48        -9.2330    0.5360    5.6590 c3        1 MOL      0.026009
    148 N13       -10.6760    0.9930    5.4630 n4        1 MOL     -0.219915
    149 H67        -7.0260   -0.4990    1.4900 hn        1 MOL      0.245906
    150 H68        -8.3110    1.9670    0.7380 h1        1 MOL      0.127040
    151 H69        -7.2310    2.7970    2.6300 hc        1 MOL     -0.002322
    152 H70        -6.2460    1.4040    2.8100 hc        1 MOL     -0.002322
    153 H71        -8.3090   -0.1070    3.0890 hc        1 MOL     -0.011769
    154 H72        -9.2480    1.4170    2.9020 hc        1 MOL     -0.011769
    155 H73        -8.4080    2.3210    4.9140 hc        1 MOL      0.054829
    156 H74        -7.1970    0.9740    5.0650 hc        1 MOL      0.054829
    157 H75        -9.0050    0.6280    6.7220 hx        1 MOL      0.074760
    158 H76        -9.0970   -0.5210    5.4350 hx        1 MOL      0.074760
    159 H77       -10.8620    1.9190    5.8060 hn        1 MOL      0.257523
    160 H78       -10.7730    0.9500    4.4570 hn        1 MOL      0.257523
    161 H79       -11.2950    0.2910    5.8380 hn        1 MOL      0.257523
    162 N14        -5.0000    1.6650   -0.0740 n         1 MOL     -0.011053
    163 C49        -4.0810    2.2580   -1.0490 c3        1 MOL     -0.138284
    164 C50        -4.5780    2.3100   -2.4800 c         1 MOL      0.510397
    165 O22        -4.5900    3.3590   -3.0940 o         1 MOL     -0.548853
    166 C51        -2.7230    1.4810   -1.1130 c3        1 MOL     -0.021616
    167 C52        -1.8620    1.9810    0.1300 c3        1 MOL     -0.100729
    168 C53        -0.5840    1.1600    0.2230 c         1 MOL      0.842730
    169 O23        -0.6360   -0.0720    0.0390 o         1 MOL     -0.785297
    170 O24         0.4660    1.7040    0.5740 o         1 MOL     -0.785297
    171 H80        -4.8020    0.7210    0.2400 hn        1 MOL     -0.126764
    172 H81        -3.8340    3.2930   -0.7940 h1        1 MOL      0.093828
    173 H82        -2.2290    1.6670   -2.0660 hc        1 MOL      0.044936
    174 H83        -2.8360    0.3900   -1.0810 hc        1 MOL      0.044936
    175 H84        -2.3580    1.7700    1.0820 hc        1 MOL     -0.002029
    176 H85        -1.6560    3.0390    0.0520 hc        1 MOL     -0.002029
    177 N15        -5.1180    1.2090   -3.0180 n         1 MOL     -0.105992
    178 C54        -5.8430    1.1440   -4.3080 c3        1 MOL     -0.234562
    179 H86        -6.9170    1.1590   -4.1220 h1        1 MOL      0.095186
    180 H87        -5.5690    2.0020   -4.9220 h1        1 MOL      0.095186
    181 H88        -5.5780    0.2240   -4.8290 h1        1 MOL      0.095186
    182 H89        -5.0150    0.3180   -2.5370 hn        1 MOL      0.124806
    183 Ca1         1.5570   -0.8310    1.2150 Ca        1 MOL      1.709252
    184 O25         0.5280   -3.2630    1.7550 oh        1 MOL     -0.809488
    185 H90         0.1310   -3.4470    2.6120 ho        1 MOL      0.381441
    186 H91         1.0680   -4.0210    1.5760 ho        1 MOL      0.381441
    187 O26        -0.0520   -0.4970    3.3610 oh        1 MOL     -0.809488
    188 H92        -0.8900   -0.0370    3.4700 ho        1 MOL      0.381441
    189 H93         0.5530   -0.0300    3.9390 ho        1 MOL      0.381441
@<TRIPOS>BOND
     1    1    2 1   
     2    1    4 1   
     3    1    5 1   
     4    1    6 1   
     5    2    3 2   
     6    2    7 1   
     7    7    8 1   
     8    7   15 1   
     9    8    9 1   
    10    8   11 1   
    11    8   16 1   
    12    9   10 2   
    13    9   19 1   
    14   11   12 1   
    15   11   17 1   
    16   11   18 1   
    17   12   13 1   
    18   12   14 1   
    19   19   20 1   
    20   19   28 1   
    21   20   21 1   
    22   20   23 1   
    23   20   29 1   
    24   21   22 2   
    25   21   41 1   
    26   23   24 1   
    27   23   30 1   
    28   23   31 1   
    29   24   25 1   
    30   24   32 1   
    31   24   33 1   
    32   25   26 1   
    33   25   34 1   
    34   25   35 1   
    35   26   27 1   
    36   26   36 1   
    37   26   37 1   
    38   27   38 1   
    39   27   39 1   
    40   27   40 1   
    41   41   42 1   
    42   41   49 1   
    43   42   43 1   
    44   42   45 1   
    45   42   50 1   
    46   43   44 2   
    47   43   53 1   
    48   45   46 1   
    49   45   51 1   
    50   45   52 1   
    51   46   47 1   
    52   46   48 1   
    53   53   54 1   
    54   53   57 1   
    55   54   55 1   
    56   54   58 1   
    57   54   59 1   
    58   55   56 2   
    59   55   60 1   
    60   60   61 1   
    61   60   68 1   
    62   61   62 1   
    63   61   64 1   
    64   61   69 1   
    65   62   63 2   
    66   62   72 1   
    67   64   65 1   
    68   64   70 1   
    69   64   71 1   
    70   65   66 1   
    71   65   67 1   
    72   72   73 1   
    73   72   76 1   
    74   73   74 1   
    75   73   77 1   
    76   73   78 1   
    77   74   75 2   
    78   74   79 1   
    79   79   80 1   
    80   79   86 1   
    81   80   81 1   
    82   80   83 1   
    83   80   87 1   
    84   81   82 2   
    85   81   93 1   
    86   83   84 1   
    87   83   85 1   
    88   83   88 1   
    89   84   90 1   
    90   84   91 1   
    91   84   92 1   
    92   85   89 1   
    93   93   94 1   
    94   93  101 1   
    95   94   95 1   
    96   94   97 1   
    97   94  102 1   
    98   95   96 2   
    99   95  112 1   
   100   97   98 1   
   101   97   99 1   
   102   97  103 1   
   103   98  100 1   
   104   98  104 1   
   105   98  105 1   
   106   99  106 1   
   107   99  107 1   
   108   99  108 1   
   109  100  109 1   
   110  100  110 1   
   111  100  111 1   
   112  112  113 1   
   113  112  119 1   
   114  113  114 1   
   115  113  116 1   
   116  113  120 1   
   117  114  115 2   
   118  114  126 1   
   119  116  117 1   
   120  116  118 1   
   121  116  121 1   
   122  117  123 1   
   123  117  124 1   
   124  117  125 1   
   125  118  122 1   
   126  126  127 1   
   127  126  133 1   
   128  127  128 1   
   129  127  130 1   
   130  127  134 1   
   131  128  129 2   
   132  128  140 1   
   133  130  131 1   
   134  130  132 1   
   135  130  135 1   
   136  131  137 1   
   137  131  138 1   
   138  131  139 1   
   139  132  136 1   
   140  140  141 1   
   141  140  149 1   
   142  141  142 1   
   143  141  144 1   
   144  141  150 1   
   145  142  143 2   
   146  142  162 1   
   147  144  145 1   
   148  144  151 1   
   149  144  152 1   
   150  145  146 1   
   151  145  153 1   
   152  145  154 1   
   153  146  147 1   
   154  146  155 1   
   155  146  156 1   
   156  147  148 1   
   157  147  157 1   
   158  147  158 1   
   159  148  159 1   
   160  148  160 1   
   161  148  161 1   
   162  162  163 1   
   163  162  171 1   
   164  163  164 1   
   165  163  166 1   
   166  163  172 1   
   167  164  165 2   
   168  164  177 1   
   169  166  167 1   
   170  166  173 1   
   171  166  174 1   
   172  167  168 1   
   173  167  175 1   
   174  167  176 1   
   175  168  169 1   
   176  168  170 1   
   177  177  178 1   
   178  177  182 1   
   179  178  179 1   
   180  178  180 1   
   181  178  181 1   
   182  184  185 1   
   183  184  186 1   
   184  187  188 1   
   185  187  189 1   
@<TRIPOS>SUBSTRUCTURE
     1 MOL         1 TEMP              0 ****  ****    0 ROOT
