@<TRIPOS>MOLECULE
MOL
  189   185     1     0     0
SMALL
resp


@<TRIPOS>ATOM
      1 C1          0.1400    3.7690    6.2160 c3        1 MOL     -0.342213
      2 C2         -0.7100    3.3120    4.9790 c         1 MOL      0.687361
      3 O1         -0.8790    2.1010    4.8530 o         1 MOL     -0.601783
      4 H1          0.4750    4.7950    6.0670 hc        1 MOL      0.086606
      5 H2         -0.4710    3.7150    7.1170 hc        1 MOL      0.086606
      6 H3          1.0060    3.1160    6.3240 hc        1 MOL      0.086606
      7 N1         -1.0250    4.1930    4.0220 n         1 MOL     -0.564696
      8 C3         -1.6460    3.9470    2.6930 c3        1 MOL      0.233655
      9 C4         -1.3860    5.1520    1.7750 c         1 MOL      0.598005
     10 O2         -1.1570    6.2480    2.2800 o         1 MOL     -0.590245
     11 C5         -3.1960    3.8200    2.8630 c3        1 MOL     -0.440899
     12 C6         -3.9600    3.3300    1.6090 c         1 MOL      0.802773
     13 O3         -5.2000    3.3940    1.7000 o         1 MOL     -0.691511
     14 O4         -3.3770    2.8220    0.6250 o         1 MOL     -0.691511
     15 H4         -0.6210    5.1120    4.0810 hn        1 MOL      0.285638
     16 H5         -1.1830    3.0200    2.3410 h1        1 MOL      0.028829
     17 H6         -3.5830    4.8160    3.0810 hc        1 MOL      0.106573
     18 H7         -3.4930    3.1800    3.6880 hc        1 MOL      0.106573
     19 N2         -1.3620    4.9360    0.4500 n         1 MOL     -0.363424
     20 C7         -0.8870    5.7370   -0.6440 c3        1 MOL     -0.211909
     21 C8         -1.8210    5.6100   -1.8660 c         1 MOL      0.744270
     22 O5         -1.8590    6.5470   -2.6380 o         1 MOL     -0.598055
     23 C9          0.5810    5.4100   -1.0230 c3        1 MOL      0.218409
     24 C10         1.5440    5.2720    0.1200 c3        1 MOL     -0.095055
     25 C11         1.0690    6.4910   -1.9440 c3        1 MOL     -0.199524
     26 C12         2.9370    4.7590   -0.1630 c3        1 MOL     -0.085392
     27 H8         -1.7740    4.0610    0.1430 hn        1 MOL      0.191254
     28 H9         -0.8750    6.7810   -0.3470 h1        1 MOL      0.099324
     29 H10         0.6130    4.4420   -1.5360 hc        1 MOL      0.023856
     30 H11         1.1520    4.5500    0.8290 hc        1 MOL      0.020622
     31 H12         1.6710    6.2360    0.6130 hc        1 MOL      0.020622
     32 H13         1.9500    6.1140   -2.4620 hc        1 MOL      0.033380
     33 H14         0.4090    6.8070   -2.7550 hc        1 MOL      0.033380
     34 H15         1.3950    7.3970   -1.4280 hc        1 MOL      0.033380
     35 H16         2.8050    3.8870   -0.7920 hc        1 MOL      0.030361
     36 H17         3.5160    5.5430   -0.6500 hc        1 MOL      0.030361
     37 H18         3.3790    4.4870    0.7940 hc        1 MOL      0.030361
     38 N3         -2.6690    4.6070   -1.9500 n         1 MOL     -0.571558
     39 C13        -3.4430    4.2000   -3.1440 c3        1 MOL      0.123117
     40 C14        -4.9050    3.6310   -2.8980 c         1 MOL      0.347959
     41 O6         -5.7360    3.5210   -3.8360 o         1 MOL     -0.557394
     42 C15        -2.5900    3.1460   -3.9360 c3        1 MOL     -0.308294
     43 C16        -2.1960    1.8670   -3.2380 c         1 MOL      0.834966
     44 O7         -2.7860    1.5180   -2.1750 o         1 MOL     -0.705115
     45 O8         -1.3730    1.1360   -3.7890 o         1 MOL     -0.705115
     46 H19        -2.5130    3.8100   -1.3540 hn        1 MOL      0.374311
     47 H20        -3.5040    5.0590   -3.8100 h1        1 MOL      0.077243
     48 H21        -1.6000    3.5820   -4.1000 hc        1 MOL      0.075627
     49 H22        -3.1050    2.7630   -4.8130 hc        1 MOL      0.075627
     50 N4         -5.2710    3.2490   -1.6960 n         1 MOL     -0.011056
     51 C17        -6.6370    2.9630   -1.3590 c3        1 MOL     -0.218330
     52 C18        -7.1000    1.5500   -1.7140 c         1 MOL      0.480170
     53 O9         -8.3340    1.3290   -1.8100 o         1 MOL     -0.610877
     54 H23        -4.5410    3.3270   -0.9960 hn        1 MOL      0.045757
     55 H24        -7.4560    3.5820   -1.7250 h1        1 MOL      0.108283
     56 H25        -6.7400    3.1830   -0.2980 h1        1 MOL      0.108283
     57 N5         -6.1940    0.5860   -1.8400 n         1 MOL     -0.081136
     58 C19        -6.6950   -0.7340   -2.3150 c3        1 MOL     -0.074429
     59 C20        -7.1410   -1.7830   -1.2100 c         1 MOL      0.432975
     60 O10        -7.4090   -2.9240   -1.5320 o         1 MOL     -0.520737
     61 C21        -5.5680   -1.4230   -3.1520 c3        1 MOL     -0.174678
     62 C22        -4.3280   -1.7210   -2.3950 c         1 MOL      0.789750
     63 O11        -4.1520   -1.3630   -1.2410 o         1 MOL     -0.726179
     64 O12        -3.3540   -2.2360   -2.9600 o         1 MOL     -0.726179
     65 H26        -5.2390    0.8850   -1.7700 hn        1 MOL      0.083212
     66 H27        -7.5900   -0.6580   -2.9160 h1        1 MOL      0.115498
     67 H28        -5.3220   -0.8100   -4.0220 hc        1 MOL      0.056494
     68 H29        -5.9190   -2.3520   -3.6140 hc        1 MOL      0.056494
     69 N6         -7.1330   -1.3740    0.0350 n         1 MOL     -0.241764
     70 C23        -7.4110   -2.2170    1.2110 c3        1 MOL     -0.147742
     71 C24        -6.3290   -3.2750    1.4460 c         1 MOL      0.476000
     72 O13        -6.6390   -4.2520    2.1380 o         1 MOL     -0.568102
     73 H30        -6.8390   -0.4240    0.1580 hn        1 MOL      0.175399
     74 H31        -8.3600   -2.7420    1.1180 h1        1 MOL      0.098727
     75 H32        -7.4560   -1.6230    2.1270 h1        1 MOL      0.098727
     76 N7         -5.1080   -3.1360    0.8330 n         1 MOL     -0.351638
     77 C25        -3.9390   -4.0070    0.9890 c3        1 MOL      0.063441
     78 C26        -2.6370   -3.2580    1.2730 c         1 MOL      0.419481
     79 O14        -2.4780   -2.0850    0.8770 o         1 MOL     -0.479742
     80 C27        -3.8920   -5.0310   -0.1920 c3        1 MOL      0.041513
     81 C28        -5.2190   -5.8210   -0.2110 c3        1 MOL     -0.339415
     82 C29        -5.1140   -7.1000   -1.1060 c         1 MOL      0.727204
     83 N8         -6.0960   -7.9960   -1.1240 n         1 MOL     -0.869074
     84 O15        -4.1300   -7.2440   -1.8270 o         1 MOL     -0.563956
     85 H33        -4.9240   -2.3140    0.2700 hn        1 MOL      0.320442
     86 H34        -4.0580   -4.6390    1.8730 h1        1 MOL      0.021811
     87 H35        -3.0960   -5.7670   -0.0620 hc        1 MOL      0.035863
     88 H36        -3.6370   -4.4230   -1.0620 hc        1 MOL      0.035863
     89 H37        -5.9250   -5.1490   -0.7020 hc        1 MOL      0.113816
     90 H38        -5.5670   -6.0960    0.7820 hc        1 MOL      0.113816
     91 H39        -6.8910   -7.8460   -0.5270 hn        1 MOL      0.367517
     92 H40        -6.0900   -8.8120   -1.7240 hn        1 MOL      0.367517
     93 N9         -1.6550   -3.8760    1.9170 n         1 MOL     -0.444356
     94 C30        -0.3230   -3.2910    2.2380 c3        1 MOL     -0.108624
     95 C31         0.6040   -3.6110    1.1250 c         1 MOL      0.643716
     96 O16         0.9490   -4.7970    0.9560 o         1 MOL     -0.612323
     97 C32         0.1800   -3.8540    3.6310 c3        1 MOL      0.284850
     98 C33         1.5460   -3.2320    3.9650 c3        1 MOL     -0.266132
     99 C34        -0.7970   -3.5790    4.7150 c3        1 MOL     -0.266132
    100 H41        -1.7340   -4.8740    2.0030 hn        1 MOL      0.295590
    101 H42        -0.4710   -2.2250    2.3970 h1        1 MOL      0.126083
    102 H43         0.2920   -4.9420    3.6250 hc        1 MOL     -0.033821
    103 H44         1.3590   -2.1710    4.0910 hc        1 MOL      0.052791
    104 H45         1.8930   -3.6060    4.9310 hc        1 MOL      0.052791
    105 H46         2.3130   -3.3890    3.2050 hc        1 MOL      0.052791
    106 H47        -1.1240   -2.5400    4.8000 hc        1 MOL      0.052791
    107 H48        -1.6820   -4.2120    4.6870 hc        1 MOL      0.052791
    108 H49        -0.3410   -3.7110    5.6970 hc        1 MOL      0.052791
    109 N10         1.1160   -2.5870    0.4430 n         1 MOL     -0.473273
    110 C35         2.1980   -2.7230   -0.5240 c3        1 MOL      0.278041
    111 C36         3.5770   -2.7480    0.1910 c         1 MOL      0.101802
    112 O17         3.7790   -2.3460    1.2830 o         1 MOL     -0.152270
    113 C37         2.1850   -1.6080   -1.6160 c3        1 MOL     -0.210954
    114 C38         3.3510   -1.6600   -2.5630 c         1 MOL      0.714781
    115 N11         3.5540   -2.7920   -3.2470 n         1 MOL     -0.767147
    116 O18         4.1180   -0.7350   -2.6520 o         1 MOL     -0.560157
    117 H50         0.7570   -1.6620    0.6480 hn        1 MOL      0.332404
    118 H51         2.0580   -3.6700   -1.0520 h1        1 MOL      0.026231
    119 H52         2.1760   -0.6190   -1.1370 hc        1 MOL      0.074685
    120 H53         1.3080   -1.7750   -2.2370 hc        1 MOL      0.074685
    121 H54         2.9490   -3.5990   -3.1540 hn        1 MOL      0.336367
    122 H55         4.2890   -2.7860   -3.9370 hn        1 MOL      0.336367
    123 N12         4.6200   -3.4610   -0.4180 n         1 MOL     -0.357670
    124 C39         5.9830   -3.2960    0.1740 c3        1 MOL      0.095720
    125 C40         6.3840   -1.8690    0.5050 c         1 MOL      0.577095
    126 O19         6.9800   -1.5870    1.5160 o         1 MOL     -0.599168
    127 C41         7.1900   -3.9870   -0.6460 c3        1 MOL     -0.203669
    128 C42         7.6300   -3.2430   -1.8320 ca        1 MOL      0.026755
    129 C43         6.9690   -3.5770   -3.0720 ca        1 MOL     -0.203378
    130 C44         8.5530   -2.1730   -1.7200 ca        1 MOL     -0.203378
    131 C45         7.2780   -2.7810   -4.1740 ca        1 MOL     -0.255516
    132 C46         8.7770   -1.3610   -2.8440 ca        1 MOL     -0.255516
    133 C47         8.1720   -1.7190   -4.0650 ca        1 MOL      0.382142
    134 O20         8.4490   -0.9370   -5.1570 oh        1 MOL     -0.574267
    135 H56         4.5020   -3.7400   -1.3740 hn        1 MOL      0.188002
    136 H57         5.9380   -3.8620    1.1070 h1        1 MOL      0.035670
    137 H58         6.8590   -4.9790   -0.9410 hc        1 MOL      0.065635
    138 H59         7.9620   -3.9370    0.1300 hc        1 MOL      0.065635
    139 H60         6.3740   -4.4660   -3.2630 ha        1 MOL      0.161465
    140 H61         9.1560   -2.0740   -0.8320 ha        1 MOL      0.161465
    141 H62         6.9440   -3.0330   -5.1610 ha        1 MOL      0.143859
    142 H63         9.4420   -0.5310   -2.6360 ha        1 MOL      0.143859
    143 H64         8.9830   -0.1710   -4.9340 ho        1 MOL      0.419700
    144 N13         5.9000   -0.8010   -0.2560 n         1 MOL      0.007545
    145 C48         6.3630    0.6110   -0.0710 c3        1 MOL     -0.203117
    146 C49         5.6490    1.2320    1.1360 c         1 MOL      0.397228
    147 O21         6.1540    2.2260    1.6960 o         1 MOL     -0.500158
    148 C50         5.9920    1.4170   -1.3560 c3        1 MOL      0.092276
    149 C51         6.7080    2.7260   -1.4870 c3        1 MOL     -0.428018
    150 C52         8.2000    2.6570   -1.5600 c         1 MOL      0.864827
    151 O22         8.9600    2.7460   -0.5700 o         1 MOL     -0.770841
    152 O23         8.7850    2.7410   -2.6960 o         1 MOL     -0.770841
    153 H65         5.5310   -1.0150   -1.1740 hn        1 MOL      0.156615
    154 H66         7.4320    0.6520    0.1580 h1        1 MOL      0.151448
    155 H67         4.9260    1.5980   -1.4990 hc        1 MOL      0.025807
    156 H68         6.2570    0.8410   -2.2460 hc        1 MOL      0.025807
    157 H69         6.3260    3.2420   -0.6080 hc        1 MOL      0.069036
    158 H70         6.3360    3.1380   -2.4280 hc        1 MOL      0.069036
    159 N14         4.5370    0.6490    1.5640 n         1 MOL     -0.068004
    160 C53         3.7690    0.9230    2.8110 c3        1 MOL     -0.073456
    161 C54         4.2270    0.1870    4.0350 c         1 MOL      0.428758
    162 O24         4.2990    0.7620    5.1480 o         1 MOL     -0.551995
    163 C55         2.2310    0.7180    2.5440 c3        1 MOL     -0.039916
    164 C56         1.7650    1.7160    1.4500 c3        1 MOL      0.052160
    165 C57         0.4450    1.3100    0.8220 c         1 MOL      0.993312
    166 O25        -0.2730    2.0980    0.1560 o         1 MOL     -0.901423
    167 O26         0.0580    0.1430    0.9280 o         1 MOL     -0.901423
    168 H71         4.1130   -0.0900    1.0120 hn        1 MOL     -0.004226
    169 H72         3.8550    1.9920    3.0100 h1        1 MOL      0.062456
    170 H73         1.6180    0.8420    3.4360 hc        1 MOL      0.035925
    171 H74         2.0560   -0.3270    2.2800 hc        1 MOL      0.035925
    172 H75         2.4470    1.8070    0.6030 hc        1 MOL     -0.002028
    173 H76         1.7030    2.6540    1.9990 hc        1 MOL     -0.002028
    174 N15         4.6550   -1.0950    3.8170 n         1 MOL     -0.014090
    175 C58         5.1170   -1.9430    4.9050 c3        1 MOL     -0.213134
    176 H77         4.8240   -2.9740    4.7110 h1        1 MOL      0.072761
    177 H78         6.2030   -1.8820    4.9780 h1        1 MOL      0.072761
    178 H79         4.6700   -1.6090    5.8420 h1        1 MOL      0.072761
    179 H80         4.6880   -1.3940    2.8490 hn        1 MOL      0.024538
    180 Ca1        -2.4940    0.3260    0.0130 Ca        1 MOL      1.773398
    181 O27        -1.9900    0.5910    2.9100 oh        1 MOL     -0.882149
    182 O28        -1.1930   -0.9550   -2.0120 oh        1 MOL     -0.882149
    183 H81        -1.4500    1.0150    3.5760 ho        1 MOL      0.415364
    184 H82        -1.7870   -1.6270   -2.3290 ho        1 MOL      0.415364
    185 H83        -2.6040    0.0450    3.4120 ho        1 MOL      0.415364
    186 H84        -1.2030   -0.2850   -2.7010 ho        1 MOL      0.415364
    187 O29        -4.6760    0.0350    1.8040 oh        1 MOL     -0.882149
    188 H85        -5.5080    0.4550    1.6130 ho        1 MOL      0.415364
    189 H86        -4.7880   -0.3300    2.6840 ho        1 MOL      0.415364
@<TRIPOS>BOND
     1    1    2 1   
     2    1    4 1   
     3    1    5 1   
     4    1    6 1   
     5    2    3 2   
     6    2    7 1   
     7    7    8 1   
     8    7   15 1   
     9    8    9 1   
    10    8   11 1   
    11    8   16 1   
    12    9   10 2   
    13    9   19 1   
    14   11   12 1   
    15   11   17 1   
    16   11   18 1   
    17   12   13 1   
    18   12   14 1   
    19   19   20 1   
    20   19   27 1   
    21   20   21 1   
    22   20   23 1   
    23   20   28 1   
    24   21   22 2   
    25   21   38 1   
    26   23   24 1   
    27   23   25 1   
    28   23   29 1   
    29   24   26 1   
    30   24   30 1   
    31   24   31 1   
    32   25   32 1   
    33   25   33 1   
    34   25   34 1   
    35   26   35 1   
    36   26   36 1   
    37   26   37 1   
    38   38   39 1   
    39   38   46 1   
    40   39   40 1   
    41   39   42 1   
    42   39   47 1   
    43   40   41 2   
    44   40   50 1   
    45   42   43 1   
    46   42   48 1   
    47   42   49 1   
    48   43   44 1   
    49   43   45 1   
    50   50   51 1   
    51   50   54 1   
    52   51   52 1   
    53   51   55 1   
    54   51   56 1   
    55   52   53 2   
    56   52   57 1   
    57   57   58 1   
    58   57   65 1   
    59   58   59 1   
    60   58   61 1   
    61   58   66 1   
    62   59   60 2   
    63   59   69 1   
    64   61   62 1   
    65   61   67 1   
    66   61   68 1   
    67   62   63 1   
    68   62   64 1   
    69   69   70 1   
    70   69   73 1   
    71   70   71 1   
    72   70   74 1   
    73   70   75 1   
    74   71   72 2   
    75   71   76 1   
    76   76   77 1   
    77   76   85 1   
    78   77   78 1   
    79   77   80 1   
    80   77   86 1   
    81   78   79 2   
    82   78   93 1   
    83   80   81 1   
    84   80   87 1   
    85   80   88 1   
    86   81   82 1   
    87   81   89 1   
    88   81   90 1   
    89   82   83 1   
    90   82   84 2   
    91   83   91 1   
    92   83   92 1   
    93   93   94 1   
    94   93  100 1   
    95   94   95 1   
    96   94   97 1   
    97   94  101 1   
    98   95   96 2   
    99   95  109 1   
   100   97   98 1   
   101   97   99 1   
   102   97  102 1   
   103   98  103 1   
   104   98  104 1   
   105   98  105 1   
   106   99  106 1   
   107   99  107 1   
   108   99  108 1   
   109  109  110 1   
   110  109  117 1   
   111  110  111 1   
   112  110  113 1   
   113  110  118 1   
   114  111  112 2   
   115  111  123 1   
   116  113  114 1   
   117  113  119 1   
   118  113  120 1   
   119  114  115 1   
   120  114  116 2   
   121  115  121 1   
   122  115  122 1   
   123  123  124 1   
   124  123  135 1   
   125  124  125 1   
   126  124  127 1   
   127  124  136 1   
   128  125  126 2   
   129  125  144 1   
   130  127  128 1   
   131  127  137 1   
   132  127  138 1   
   133  128  129 ar  
   134  128  130 ar  
   135  129  131 ar  
   136  129  139 1   
   137  130  132 ar  
   138  130  140 1   
   139  131  133 ar  
   140  131  141 1   
   141  132  133 ar  
   142  132  142 1   
   143  133  134 1   
   144  134  143 1   
   145  144  145 1   
   146  144  153 1   
   147  145  146 1   
   148  145  148 1   
   149  145  154 1   
   150  146  147 2   
   151  146  159 1   
   152  148  149 1   
   153  148  155 1   
   154  148  156 1   
   155  149  150 1   
   156  149  157 1   
   157  149  158 1   
   158  150  151 1   
   159  150  152 1   
   160  159  160 1   
   161  159  168 1   
   162  160  161 1   
   163  160  163 1   
   164  160  169 1   
   165  161  162 2   
   166  161  174 1   
   167  163  164 1   
   168  163  170 1   
   169  163  171 1   
   170  164  165 1   
   171  164  172 1   
   172  164  173 1   
   173  165  166 1   
   174  165  167 1   
   175  174  175 1   
   176  174  179 1   
   177  175  176 1   
   178  175  177 1   
   179  175  178 1   
   180  181  183 1   
   181  181  185 1   
   182  182  184 1   
   183  182  186 1   
   184  187  188 1   
   185  187  189 1   
@<TRIPOS>SUBSTRUCTURE
     1 MOL         1 TEMP              0 ****  ****    0 ROOT
