@<TRIPOS>MOLECULE
MOL
  186   183     1     0     0
SMALL
resp


@<TRIPOS>ATOM
      1 C1          0.5440   -2.1280    6.1980 c3        1 MOL     -0.252464
      2 C2          0.8960   -2.1330    4.6710 c         1 MOL      0.803116
      3 O1          0.1780   -2.7070    3.8950 o         1 MOL     -0.614893
      4 H1          0.2250   -1.1280    6.4930 hc        1 MOL      0.045942
      5 H2         -0.2620   -2.8360    6.3880 hc        1 MOL      0.045942
      6 H3          1.4230   -2.4130    6.7750 hc        1 MOL      0.045942
      7 N1          2.0650   -1.6210    4.3880 n         1 MOL     -0.685581
      8 C3          2.6050   -1.6730    3.0510 c3        1 MOL      0.536032
      9 C4          3.0400   -3.0530    2.5690 c         1 MOL      0.297970
     10 O2          3.9380   -3.6150    3.1930 o         1 MOL     -0.553460
     11 C5          3.7270   -0.6480    2.8930 c3        1 MOL     -0.576376
     12 C6          4.5400   -0.6980    1.6050 c         1 MOL      0.827657
     13 O3          5.7640   -0.3520    1.6450 o         1 MOL     -0.644472
     14 O4          3.9090   -0.9050    0.5510 o         1 MOL     -0.644472
     15 H4          2.5410   -1.0400    5.0760 hn        1 MOL      0.325909
     16 H5          1.8480   -1.2430    2.3880 h1        1 MOL     -0.055229
     17 H6          4.4160   -0.7370    3.7320 hc        1 MOL      0.112525
     18 H7          3.1900    0.2990    2.9330 hc        1 MOL      0.112525
     19 N2          2.4790   -3.5680    1.4970 n         1 MOL     -0.097546
     20 C7          2.7790   -4.9430    1.0150 c3        1 MOL     -0.042426
     21 C8          3.7780   -4.9350   -0.1700 c         1 MOL      0.430356
     22 O5          4.6380   -5.8010   -0.2150 o         1 MOL     -0.576212
     23 C9          1.4630   -5.6350    0.6000 c3        1 MOL      0.384705
     24 C10         0.5420   -5.6770    1.8420 c3        1 MOL     -0.039336
     25 C11         1.7870   -7.0800    0.1730 c3        1 MOL     -0.381235
     26 C12        -0.8800   -6.1670    1.5140 c3        1 MOL     -0.248445
     27 H8          1.7850   -3.0420    0.9750 hn        1 MOL     -0.036774
     28 H9          3.1660   -5.5200    1.8520 h1        1 MOL      0.059872
     29 H10         1.0740   -5.0730   -0.2490 hc        1 MOL     -0.061194
     30 H11         0.2680   -4.7420    2.3420 hc        1 MOL      0.029691
     31 H12         1.0690   -6.2700    2.5900 hc        1 MOL      0.029691
     32 H13         2.5050   -7.1220   -0.6390 hc        1 MOL      0.071663
     33 H14         2.3060   -7.6260    0.9610 hc        1 MOL      0.071663
     34 H15         0.8150   -7.5360   -0.0360 hc        1 MOL      0.071663
     35 H16        -0.8950   -7.0680    0.9060 hc        1 MOL      0.053964
     36 H17        -1.4440   -6.2870    2.4430 hc        1 MOL      0.053964
     37 H18        -1.4500   -5.3880    1.0060 hc        1 MOL      0.053964
     38 N3          3.6420   -4.0260   -1.1050 n         1 MOL     -0.239618
     39 C13         4.5020   -4.0000   -2.3060 c3        1 MOL     -0.027315
     40 C14         5.8310   -3.2490   -2.1090 c         1 MOL      0.413282
     41 O6          6.7030   -3.3350   -2.9960 o         1 MOL     -0.538982
     42 C15         3.7500   -3.7240   -3.6460 c3        1 MOL     -0.221268
     43 C16         3.2480   -2.2480   -3.7120 c         1 MOL      0.797077
     44 O7          3.1840   -1.5210   -2.6610 o         1 MOL     -0.739700
     45 O8          2.7740   -1.7300   -4.7830 o         1 MOL     -0.739700
     46 H19         2.9930   -3.2650   -1.0030 hn        1 MOL      0.265162
     47 H20         4.9370   -4.9990   -2.4130 h1        1 MOL      0.095534
     48 H21         2.8740   -4.3720   -3.6790 hc        1 MOL      0.054239
     49 H22         4.3120   -3.8810   -4.5610 hc        1 MOL      0.054239
     50 N4          6.0330   -2.6490   -0.9540 n         1 MOL     -0.117507
     51 C17         7.3860   -2.3990   -0.3680 c3        1 MOL     -0.251035
     52 C18         7.9270   -1.0980   -0.8470 c         1 MOL      0.634431
     53 O9          9.0570   -1.0600   -1.2670 o         1 MOL     -0.612012
     54 H23         5.2970   -2.4760   -0.2940 hn        1 MOL      0.230907
     55 H24         8.0650   -3.2070   -0.6210 h1        1 MOL      0.107145
     56 H25         7.2550   -2.2750    0.7120 h1        1 MOL      0.107145
     57 N5          7.0880   -0.0300   -0.8930 n         1 MOL     -0.205514
     58 C19         7.3910    1.2480   -1.5910 c3        1 MOL      0.116445
     59 C20         7.4670    2.4160   -0.5610 c         1 MOL      0.335035
     60 O10         7.8530    3.4630   -0.9420 o         1 MOL     -0.545522
     61 C21         6.3640    1.6540   -2.6620 c3        1 MOL     -0.259450
     62 C22         4.8960    1.6010   -2.1530 c         1 MOL      0.890123
     63 O11         4.5300    1.6290   -0.9720 o         1 MOL     -0.768003
     64 O12         4.0590    1.6300   -3.0670 o         1 MOL     -0.768003
     65 H26         6.1460   -0.1530   -0.5380 hn        1 MOL     -0.096753
     66 H27         8.3950    1.1720   -2.0050 h1        1 MOL      0.060501
     67 H28         6.4560    0.9230   -3.4620 hc        1 MOL      0.069746
     68 H29         6.5020    2.6640   -3.0360 hc        1 MOL      0.069746
     69 N6          7.0800    2.1810    0.6370 n         1 MOL     -0.144046
     70 C23         6.9940    3.1840    1.7330 c3        1 MOL     -0.092613
     71 C24         5.6720    4.0340    1.6880 c         1 MOL      0.508264
     72 O13         5.6640    5.1270    2.2340 o         1 MOL     -0.593776
     73 H30         6.7950    1.2240    0.8150 hn        1 MOL      0.150990
     74 H31         7.8960    3.7970    1.8240 h1        1 MOL      0.069434
     75 H32         6.8990    2.6360    2.6660 h1        1 MOL      0.069434
     76 N7          4.6220    3.5430    1.0920 n         1 MOL     -0.233239
     77 C25         3.2590    4.0570    1.1520 c3        1 MOL     -0.045314
     78 C26         2.0740    3.1350    1.4110 c         1 MOL      0.562862
     79 O14         2.1450    1.9950    0.9420 o         1 MOL     -0.659916
     80 C27         2.9810    4.8600   -0.1730 c3        1 MOL     -0.071438
     81 C28         3.8610    6.0650   -0.3580 c3        1 MOL     -0.042094
     82 C29         3.3610    7.0710   -1.3430 c         1 MOL      0.626373
     83 N8          3.0010    6.6800   -2.5240 n         1 MOL     -0.798625
     84 O15         3.3130    8.2480   -0.9820 o         1 MOL     -0.596764
     85 H33         4.8240    2.7400    0.5070 hn        1 MOL      0.257164
     86 H34         3.2340    4.6590    2.0530 h1        1 MOL      0.057651
     87 H35         1.9570    5.2170   -0.0770 hc        1 MOL      0.041426
     88 H36         3.0660    4.2050   -1.0390 hc        1 MOL      0.041426
     89 H37         4.8870    5.7980   -0.6430 hc        1 MOL      0.045925
     90 H38         4.0510    6.6080    0.5710 hc        1 MOL      0.045925
     91 H39         3.1890    5.7860   -2.9680 hn        1 MOL      0.358185
     92 H40         2.6100    7.3520   -3.1650 hn        1 MOL      0.358185
     93 N9          0.9990    3.5040    2.0670 n         1 MOL     -0.403696
     94 C30        -0.2420    2.6820    2.1580 c3        1 MOL     -0.022395
     95 C31        -1.3220    3.0520    1.0840 c         1 MOL      0.562497
     96 O16        -1.8720    4.1150    1.1420 o         1 MOL     -0.593236
     97 C32        -0.8930    2.7500    3.5760 c3        1 MOL      0.417520
     98 C33        -1.7890    1.5750    3.7770 c3        1 MOL     -0.364108
     99 C34         0.0610    2.8800    4.7860 c3        1 MOL     -0.364108
    100 H41         0.9780    4.4730    2.3580 hn        1 MOL      0.270912
    101 H42        -0.0340    1.6520    1.8740 h1        1 MOL      0.109506
    102 H43        -1.4710    3.6590    3.6620 hc        1 MOL     -0.086182
    103 H44        -2.4400    1.4120    2.9090 hc        1 MOL      0.071001
    104 H45        -1.0950    0.7720    4.0230 hc        1 MOL      0.071001
    105 H46        -2.4490    1.6670    4.6400 hc        1 MOL      0.071001
    106 H47        -0.5760    2.8610    5.6710 hc        1 MOL      0.071001
    107 H48         0.7680    2.0630    4.8600 hc        1 MOL      0.071001
    108 H49         0.6010    3.8290    4.7440 hc        1 MOL      0.071001
    109 N10        -1.5180    2.2940    0.0360 n         1 MOL     -0.407356
    110 C35        -2.6980    2.4190   -0.8160 c3        1 MOL      0.199879
    111 C36        -4.0610    2.0240   -0.0860 c         1 MOL      0.156662
    112 O17        -3.9940    1.1890    0.8220 o         1 MOL     -0.129894
    113 C37        -2.4050    1.6180   -2.0790 c3        1 MOL     -0.287067
    114 C38        -3.5440    1.7540   -3.1950 c         1 MOL      0.566561
    115 N11        -4.1040    2.8510   -3.4350 n         1 MOL     -0.686799
    116 O18        -3.9010    0.6440   -3.6730 o         1 MOL     -0.520905
    117 H50        -1.0460    1.4040   -0.0590 hn        1 MOL      0.264177
    118 H51        -2.7730    3.4820   -1.0250 h1        1 MOL      0.021958
    119 H52        -2.2090    0.5850   -1.8110 hc        1 MOL      0.099812
    120 H53        -1.4960    1.9660   -2.5710 hc        1 MOL      0.099812
    121 H54        -3.8140    3.7570   -3.1050 hn        1 MOL      0.342353
    122 H55        -4.6180    2.8240   -4.3070 hn        1 MOL      0.342353
    123 N12        -5.2310    2.3730   -0.5100 n         1 MOL     -0.223266
    124 C39        -6.5000    1.8740    0.0070 c3        1 MOL      0.007103
    125 C40        -6.7530    0.3450   -0.0620 c         1 MOL      0.579720
    126 O19        -7.2050   -0.3410    0.9430 o         1 MOL     -0.545072
    127 C41        -7.5450    2.4800   -0.8850 c3        1 MOL     -0.073743
    128 C42        -8.9460    2.0480   -0.3980 ca        1 MOL     -0.079894
    129 C43        -9.4270    2.6040    0.8070 ca        1 MOL     -0.077831
    130 C44        -9.8070    1.1250   -0.9870 ca        1 MOL     -0.077831
    131 C45       -10.6750    2.2980    1.3830 ca        1 MOL     -0.346287
    132 C46       -11.0880    0.8490   -0.4570 ca        1 MOL     -0.346287
    133 C47       -11.5850    1.3910    0.8060 ca        1 MOL      0.457678
    134 O20       -12.8260    1.2720    1.2820 oh        1 MOL     -0.521245
    135 H56        -5.3250    3.0320   -1.2770 hn        1 MOL      0.187826
    136 H57        -6.6890    2.2870    1.0070 h1        1 MOL      0.062643
    137 H58        -7.3730    2.1840   -1.9180 hc        1 MOL      0.050166
    138 H59        -7.5220    3.5740   -0.8590 hc        1 MOL      0.050166
    139 H60        -8.8260    3.3690    1.2960 ha        1 MOL      0.118286
    140 H61        -9.3700    0.5470   -1.7920 ha        1 MOL      0.118286
    141 H62       -10.9190    2.8480    2.2850 ha        1 MOL      0.146838
    142 H63       -11.7420    0.1230   -0.9140 ha        1 MOL      0.146838
    143 H64       -13.4160    1.0070    0.5650 ho        1 MOL      0.374921
    144 N13        -6.2560   -0.3240   -1.0880 n         1 MOL     -0.272992
    145 C48        -6.2610   -1.7760   -1.1330 c3        1 MOL     -0.120481
    146 C49        -5.2460   -2.4790   -0.1540 c         1 MOL      0.382053
    147 O21        -5.3360   -3.6580    0.1090 o         1 MOL     -0.494749
    148 C50        -6.0970   -2.3050   -2.5480 c3        1 MOL     -0.063871
    149 C51        -7.4760   -2.1530   -3.2220 c3        1 MOL     -0.137249
    150 C52        -7.3720   -2.5180   -4.7520 c         1 MOL      0.687444
    151 O22        -7.0470   -1.6560   -5.5960 o         1 MOL     -0.736190
    152 O23        -7.6130   -3.6970   -5.1060 o         1 MOL     -0.736190
    153 H65        -6.0530    0.2340   -1.8960 hn        1 MOL      0.250742
    154 H66        -7.2080   -2.1300   -0.7400 h1        1 MOL      0.133868
    155 H67        -5.8820   -3.3770   -2.5410 hc        1 MOL      0.074371
    156 H68        -5.3560   -1.7310   -3.1040 hc        1 MOL      0.074371
    157 H69        -7.8430   -1.1310   -3.2840 hc        1 MOL     -0.004627
    158 H70        -8.2140   -2.8090   -2.7610 hc        1 MOL     -0.004627
    159 N14        -4.2890   -1.6790    0.4150 n         1 MOL     -0.123962
    160 C53        -3.4100   -2.0360    1.5510 c3        1 MOL      0.052552
    161 C54        -4.1890   -1.7070    2.8990 c         1 MOL      0.352728
    162 O24        -4.3460   -2.5900    3.7870 o         1 MOL     -0.562324
    163 C55        -2.0380   -1.3810    1.4230 c3        1 MOL      0.426001
    164 C56        -1.2370   -2.0460    0.2960 c3        1 MOL      0.075027
    165 C57        -0.0320   -1.2560    0.0050 c         1 MOL      0.888504
    166 O25         1.0230   -1.7960   -0.2990 o         1 MOL     -0.771033
    167 O26         0.0230   -0.0110   -0.0130 o         1 MOL     -0.771033
    168 H71        -4.2670   -0.7220    0.0810 hn        1 MOL      0.059758
    169 H72        -3.2270   -3.1140    1.6280 h1        1 MOL      0.061238
    170 H73        -1.4490   -1.3830    2.3440 hc        1 MOL     -0.169911
    171 H74        -2.2470   -0.3490    1.1440 hc        1 MOL     -0.169911
    172 H75        -1.8780   -2.0890   -0.5840 hc        1 MOL     -0.075554
    173 H76        -1.1140   -3.0780    0.6360 hc        1 MOL     -0.075554
    174 N15        -4.7650   -0.5350    3.0400 n         1 MOL      0.083808
    175 C58        -5.4870    0.0070    4.2040 c3        1 MOL     -0.441320
    176 H77        -5.3700    1.0900    4.2310 h1        1 MOL      0.137020
    177 H78        -6.5450   -0.2410    4.1240 h1        1 MOL      0.137020
    178 H79        -5.0800   -0.4260    5.1180 h1        1 MOL      0.137020
    179 H80        -4.7820    0.0020    2.1930 hn        1 MOL     -0.037270
    180 Ca1         2.3440    0.3680   -1.0700 Ca        1 MOL      1.802108
    181 O27         1.5240    2.4240   -2.8810 oh        1 MOL     -0.890481
    182 H81         0.9920    2.0000   -3.5590 ho        1 MOL      0.417617
    183 H82         2.2490    2.8350   -3.3670 ho        1 MOL      0.417617
    184 O28         0.6990   -0.3700   -3.1040 oh        1 MOL     -0.890481
    185 H83        -0.1880   -0.6460   -3.3590 ho        1 MOL      0.417617
    186 H84         1.2230   -0.4830   -3.8960 ho        1 MOL      0.417617
@<TRIPOS>BOND
     1    1    2 1   
     2    1    4 1   
     3    1    5 1   
     4    1    6 1   
     5    2    3 2   
     6    2    7 1   
     7    7    8 1   
     8    7   15 1   
     9    8    9 1   
    10    8   11 1   
    11    8   16 1   
    12    9   10 2   
    13    9   19 1   
    14   11   12 1   
    15   11   17 1   
    16   11   18 1   
    17   12   13 1   
    18   12   14 1   
    19   19   20 1   
    20   19   27 1   
    21   20   21 1   
    22   20   23 1   
    23   20   28 1   
    24   21   22 2   
    25   21   38 1   
    26   23   24 1   
    27   23   25 1   
    28   23   29 1   
    29   24   26 1   
    30   24   30 1   
    31   24   31 1   
    32   25   32 1   
    33   25   33 1   
    34   25   34 1   
    35   26   35 1   
    36   26   36 1   
    37   26   37 1   
    38   38   39 1   
    39   38   46 1   
    40   39   40 1   
    41   39   42 1   
    42   39   47 1   
    43   40   41 2   
    44   40   50 1   
    45   42   43 1   
    46   42   48 1   
    47   42   49 1   
    48   43   44 1   
    49   43   45 1   
    50   50   51 1   
    51   50   54 1   
    52   51   52 1   
    53   51   55 1   
    54   51   56 1   
    55   52   53 2   
    56   52   57 1   
    57   57   58 1   
    58   57   65 1   
    59   58   59 1   
    60   58   61 1   
    61   58   66 1   
    62   59   60 2   
    63   59   69 1   
    64   61   62 1   
    65   61   67 1   
    66   61   68 1   
    67   62   63 1   
    68   62   64 1   
    69   69   70 1   
    70   69   73 1   
    71   70   71 1   
    72   70   74 1   
    73   70   75 1   
    74   71   72 2   
    75   71   76 1   
    76   76   77 1   
    77   76   85 1   
    78   77   78 1   
    79   77   80 1   
    80   77   86 1   
    81   78   79 2   
    82   78   93 1   
    83   80   81 1   
    84   80   87 1   
    85   80   88 1   
    86   81   82 1   
    87   81   89 1   
    88   81   90 1   
    89   82   83 1   
    90   82   84 2   
    91   83   91 1   
    92   83   92 1   
    93   93   94 1   
    94   93  100 1   
    95   94   95 1   
    96   94   97 1   
    97   94  101 1   
    98   95   96 2   
    99   95  109 1   
   100   97   98 1   
   101   97   99 1   
   102   97  102 1   
   103   98  103 1   
   104   98  104 1   
   105   98  105 1   
   106   99  106 1   
   107   99  107 1   
   108   99  108 1   
   109  109  110 1   
   110  109  117 1   
   111  110  111 1   
   112  110  113 1   
   113  110  118 1   
   114  111  112 2   
   115  111  123 1   
   116  113  114 1   
   117  113  119 1   
   118  113  120 1   
   119  114  115 1   
   120  114  116 2   
   121  115  121 1   
   122  115  122 1   
   123  123  124 1   
   124  123  135 1   
   125  124  125 1   
   126  124  127 1   
   127  124  136 1   
   128  125  126 2   
   129  125  144 1   
   130  127  128 1   
   131  127  137 1   
   132  127  138 1   
   133  128  129 ar  
   134  128  130 ar  
   135  129  131 ar  
   136  129  139 1   
   137  130  132 ar  
   138  130  140 1   
   139  131  133 ar  
   140  131  141 1   
   141  132  133 ar  
   142  132  142 1   
   143  133  134 1   
   144  134  143 1   
   145  144  145 1   
   146  144  153 1   
   147  145  146 1   
   148  145  148 1   
   149  145  154 1   
   150  146  147 2   
   151  146  159 1   
   152  148  149 1   
   153  148  155 1   
   154  148  156 1   
   155  149  150 1   
   156  149  157 1   
   157  149  158 1   
   158  150  151 1   
   159  150  152 1   
   160  159  160 1   
   161  159  168 1   
   162  160  161 1   
   163  160  163 1   
   164  160  169 1   
   165  161  162 2   
   166  161  174 1   
   167  163  164 1   
   168  163  170 1   
   169  163  171 1   
   170  164  165 1   
   171  164  172 1   
   172  164  173 1   
   173  165  166 1   
   174  165  167 1   
   175  174  175 1   
   176  174  179 1   
   177  175  176 1   
   178  175  177 1   
   179  175  178 1   
   180  181  182 1   
   181  181  183 1   
   182  184  185 1   
   183  184  186 1   
@<TRIPOS>SUBSTRUCTURE
     1 MOL         1 TEMP              0 ****  ****    0 ROOT
