@<TRIPOS>MOLECULE
MOL
  175   173     1     0     0
SMALL
resp


@<TRIPOS>ATOM
      1 C1          0.3420    4.0120    5.6840 c3        1 MOL     -0.427556
      2 C2         -0.0500    3.8080    4.2160 c         1 MOL      0.757573
      3 O1          0.7410    3.9020    3.2700 o         1 MOL     -0.586904
      4 H1         -0.3490    4.7150    6.1490 hc        1 MOL      0.106151
      5 H2          0.2970    3.0580    6.2090 hc        1 MOL      0.106151
      6 H3          1.3550    4.4100    5.7380 hc        1 MOL      0.106151
      7 N1         -1.3370    3.4540    3.9900 n         1 MOL     -0.694996
      8 C3         -1.9130    3.2320    2.6810 c3        1 MOL      0.160327
      9 C4         -1.9890    4.4290    1.7600 c         1 MOL      0.682209
     10 O2         -2.4830    5.4480    2.2150 o         1 MOL     -0.610686
     11 C5         -3.3650    2.7510    2.9850 c3        1 MOL     -0.365004
     12 C6         -4.2230    2.4980    1.7360 c         1 MOL      0.698841
     13 O3         -3.6540    2.0450    0.7200 o         1 MOL     -0.637353
     14 O4         -5.4630    2.7120    1.8730 o         1 MOL     -0.637353
     15 H4         -1.9460    3.3260    4.7840 hn        1 MOL      0.341162
     16 H5         -1.4770    2.3880    2.1360 h1        1 MOL      0.115471
     17 H6         -3.8840    3.4770    3.6100 hc        1 MOL      0.075687
     18 H7         -3.2380    1.8800    3.6150 hc        1 MOL      0.075687
     19 N2         -1.6800    4.3120    0.4940 n         1 MOL     -0.668375
     20 C7         -2.0130    5.3650   -0.4720 c3        1 MOL      0.525153
     21 C8         -3.1790    5.1080   -1.4440 c         1 MOL      0.298930
     22 O5         -3.3340    5.9940   -2.3280 o         1 MOL     -0.555394
     23 C9         -0.7220    5.6830   -1.2730 c3        1 MOL     -0.302514
     24 H8         -1.3430    3.4370    0.1220 hn        1 MOL      0.368066
     25 H9         -2.2400    6.2810    0.0840 h1        1 MOL     -0.027877
     26 H10        -0.5410    4.9190   -2.0400 hc        1 MOL      0.062545
     27 H11        -0.8850    6.6590   -1.7410 hc        1 MOL      0.062545
     28 H12         0.1340    5.7780   -0.5980 hc        1 MOL      0.062545
     29 N3         -3.9000    3.9260   -1.4750 n         1 MOL     -0.283314
     30 C10        -4.8970    3.4920   -2.5410 c3        1 MOL      0.060229
     31 C11        -6.0350    2.6250   -2.1160 c         1 MOL      0.408693
     32 O6         -6.9280    2.4690   -2.9780 o         1 MOL     -0.554587
     33 C12        -4.0890    2.8690   -3.7060 c3        1 MOL     -0.019209
     34 C13        -3.1830    1.7140   -3.2110 c         1 MOL      0.718909
     35 O7         -2.3140    1.4030   -3.9970 o         1 MOL     -0.689002
     36 O8         -3.4520    1.0570   -2.1920 o         1 MOL     -0.689002
     37 H13        -3.6910    3.2220   -0.7930 hn        1 MOL      0.109375
     38 H14        -5.4340    4.3580   -2.9420 h1        1 MOL      0.068066
     39 H15        -3.5020    3.5850   -4.2810 hc        1 MOL     -0.002988
     40 H16        -4.9060    2.5190   -4.3370 hc        1 MOL     -0.002988
     41 N4         -6.1570    2.0480   -0.9100 n         1 MOL     -0.119822
     42 C14        -7.3280    1.3580   -0.5470 c3        1 MOL     -0.295095
     43 C15        -7.3970   -0.0640   -1.1010 c         1 MOL      0.516968
     44 O9         -8.4590   -0.6720   -0.9910 o         1 MOL     -0.621211
     45 H17        -5.4840    2.0680   -0.1640 hn        1 MOL      0.147651
     46 H18        -8.1910    1.8810   -0.9520 h1        1 MOL      0.130182
     47 H19        -7.3000    1.3870    0.5410 h1        1 MOL      0.130182
     48 N5         -6.3490   -0.5970   -1.6720 n         1 MOL     -0.145340
     49 C16        -6.1950   -1.9740   -2.2080 c3        1 MOL      0.005924
     50 C17        -6.1310   -3.0520   -1.1650 c         1 MOL      0.525862
     51 O10        -5.9480   -4.1740   -1.5320 o         1 MOL     -0.553272
     52 C18        -5.0270   -1.9870   -3.2360 c3        1 MOL     -0.089295
     53 C19        -3.6470   -1.9860   -2.6150 c         1 MOL      0.560006
     54 N6         -2.6710   -1.8710   -3.4880 n         1 MOL     -0.619020
     55 O11        -3.4560   -2.1060   -1.4070 o         1 MOL     -0.628540
     56 H20        -5.5240   -0.0160   -1.6970 hn        1 MOL      0.076538
     57 H21        -7.1390   -2.1480   -2.7400 h1        1 MOL      0.077935
     58 H22        -5.2700   -1.1880   -3.9320 hc        1 MOL      0.040775
     59 H23        -5.1770   -2.8850   -3.8290 hc        1 MOL      0.040775
     60 H24        -2.8000   -1.9430   -4.4840 hn        1 MOL      0.342752
     61 H25        -1.7190   -1.7370   -3.1660 hn        1 MOL      0.342752
     62 N7         -6.2700   -2.7220    0.1160 n         1 MOL     -0.417751
     63 C20        -6.3040   -3.7580    1.2120 c3        1 MOL     -0.190555
     64 C21        -4.9440   -4.3720    1.5870 c         1 MOL      0.414013
     65 O12        -4.9670   -4.9480    2.6630 o         1 MOL     -0.568460
     66 H26        -6.2170   -1.7390    0.3360 hn        1 MOL      0.302774
     67 H27        -6.9660   -4.5670    0.9060 h1        1 MOL      0.134486
     68 H28        -6.8520   -3.3230    2.0510 h1        1 MOL      0.134486
     69 N8         -3.8550   -4.2260    0.8580 n         1 MOL     -0.124368
     70 C22        -2.4980   -4.6720    1.1590 c3        1 MOL     -0.109448
     71 C23        -1.5280   -3.5100    1.4790 c         1 MOL      0.578852
     72 O13        -1.6210   -2.4750    0.8130 o         1 MOL     -0.567366
     73 C24        -1.9890   -5.4950    0.0680 c3        1 MOL      0.372995
     74 C25        -2.7890   -6.8040   -0.2080 c3        1 MOL     -0.310878
     75 O14        -1.9600   -4.7650   -1.1000 oh        1 MOL     -0.575505
     76 H29        -4.0390   -3.7300   -0.0040 hn        1 MOL      0.252983
     77 H30        -2.5170   -5.2360    2.0930 h1        1 MOL      0.053910
     78 H31        -0.9510   -5.7540    0.2590 h1        1 MOL     -0.020734
     79 H32        -1.4820   -3.9410   -0.9530 ho        1 MOL      0.391819
     80 H33        -2.2830   -7.4960   -0.8840 hc        1 MOL      0.080011
     81 H34        -2.9420   -7.3740    0.7150 hc        1 MOL      0.080011
     82 H35        -3.7650   -6.6600   -0.6460 hc        1 MOL      0.080011
     83 N9         -0.4600   -3.7260    2.2660 n         1 MOL     -0.592263
     84 C26         0.6570   -2.7690    2.3020 c3        1 MOL     -0.107976
     85 C27         1.4180   -3.0670    0.9770 c         1 MOL      0.206704
     86 O15         1.5550   -4.2050    0.6210 o         1 MOL     -0.475260
     87 C28         1.6380   -2.9040    3.4560 c3        1 MOL      0.547704
     88 C29         0.8730   -2.9020    4.7810 c3        1 MOL     -0.026082
     89 C30         2.7670   -1.7610    3.4000 c3        1 MOL     -0.324742
     90 C31         1.7960   -3.3480    5.9160 c3        1 MOL     -0.237949
     91 H36        -0.3630   -4.6260    2.7080 hn        1 MOL      0.342362
     92 H37         0.3090   -1.7370    2.3190 h1        1 MOL      0.013466
     93 H38         2.1880   -3.8390    3.4330 hc        1 MOL     -0.085428
     94 H39         0.0510   -3.6150    4.6790 hc        1 MOL      0.006000
     95 H40         0.5470   -1.8940    5.0250 hc        1 MOL      0.006000
     96 H41         3.3660   -1.8130    4.3070 hc        1 MOL      0.046276
     97 H42         3.4740   -2.0070    2.6060 hc        1 MOL      0.046276
     98 H43         2.2340   -0.8330    3.1690 hc        1 MOL      0.046276
     99 H44         1.2140   -3.7350    6.7450 hc        1 MOL      0.050661
    100 H45         2.3620   -4.2160    5.5720 hc        1 MOL      0.050661
    101 H46         2.3790   -2.4620    6.1760 hc        1 MOL      0.050661
    102 N10         1.8360   -2.0290    0.1960 n         1 MOL     -0.015864
    103 C32         2.6960   -1.9850   -1.0290 c3        1 MOL      0.034234
    104 C33         4.1230   -1.5970   -0.7390 c         1 MOL      0.382823
    105 O16         4.4820   -1.2160    0.3810 o         1 MOL     -0.389139
    106 C34         2.0180   -1.0930   -2.0860 c3        1 MOL     -0.325896
    107 C35         0.5370   -1.4070   -2.4550 c         1 MOL      0.729292
    108 O17        -0.3570   -0.8970   -1.7300 o         1 MOL     -0.678090
    109 O18         0.2360   -2.0370   -3.4830 o         1 MOL     -0.678090
    110 H47         1.4660   -1.1550    0.5530 hn        1 MOL      0.308569
    111 H48         2.6820   -3.0050   -1.4010 h1        1 MOL      0.066816
    112 H49         2.6250   -1.1880   -2.9880 hc        1 MOL      0.092749
    113 H50         2.0010   -0.0180   -1.9060 hc        1 MOL      0.092749
    114 N11         5.0270   -1.7460   -1.6760 n         1 MOL     -0.514083
    115 C36         6.4480   -1.3090   -1.6120 c3        1 MOL      0.369675
    116 C37         6.7600    0.1450   -1.1660 c         1 MOL      0.361273
    117 O19         7.5200    0.3740   -0.1910 o         1 MOL     -0.496008
    118 C38         7.1260   -1.5880   -2.9310 c3        1 MOL     -0.286835
    119 C39         8.6110   -1.6120   -2.7090 ca        1 MOL      0.154797
    120 C40         9.2080   -2.7020   -2.0650 ca        1 MOL     -0.215600
    121 C41         9.4560   -0.5460   -3.1460 ca        1 MOL     -0.215600
    122 C42        10.5540   -2.6880   -1.7400 ca        1 MOL     -0.046916
    123 C43        10.8420   -0.5440   -2.7800 ca        1 MOL     -0.046916
    124 C44        11.4190   -1.5980   -1.9960 ca        1 MOL     -0.206781
    125 H51         4.6660   -2.0880   -2.5540 hn        1 MOL      0.310846
    126 H52         7.0180   -1.8550   -0.8620 h1        1 MOL      0.025315
    127 H53         6.9620   -0.9020   -3.7730 hc        1 MOL      0.081613
    128 H54         6.8220   -2.5980   -3.2030 hc        1 MOL      0.081613
    129 H55         8.5280   -3.4860   -1.7730 ha        1 MOL      0.128738
    130 H56         9.0370    0.2520   -3.7430 ha        1 MOL      0.128738
    131 H57        10.8950   -3.5360   -1.1580 ha        1 MOL      0.093906
    132 H58        11.4360    0.2950   -3.1190 ha        1 MOL      0.093906
    133 H59        12.3970   -1.5090   -1.5580 ha        1 MOL      0.144703
    134 N12         6.1350    1.2050   -1.7540 n         1 MOL     -0.102674
    135 C45         6.4020    2.5760   -1.2750 c3        1 MOL     -0.050572
    136 C46         5.8170    2.7820    0.1710 c         1 MOL      0.385015
    137 O20         6.3490    3.6020    0.9580 o         1 MOL     -0.512069
    138 C47         5.7580    3.4730   -2.3700 c3        1 MOL     -0.084071
    139 C48         4.6020    2.6170   -2.8350 c3        1 MOL      0.153860
    140 C49         5.1210    1.1850   -2.8010 c3        1 MOL     -0.037712
    141 H60         7.4560    2.8170   -1.2240 h1        1 MOL      0.093316
    142 H61         5.4450    4.4330   -1.9740 hc        1 MOL      0.037370
    143 H62         6.4870    3.6210   -3.1650 hc        1 MOL      0.037370
    144 H63         3.7650    2.8700   -2.1940 hc        1 MOL     -0.001166
    145 H64         4.3330    2.9050   -3.8520 hc        1 MOL     -0.001166
    146 H65         4.3380    0.4760   -2.5190 h1        1 MOL      0.025097
    147 H66         5.5150    0.7800   -3.7340 h1        1 MOL      0.025097
    148 N13         4.8520    1.9350    0.4910 n         1 MOL      0.102302
    149 C50         4.1070    1.9970    1.7940 c3        1 MOL     -0.051975
    150 C51         4.8920    1.3430    2.8770 c         1 MOL      0.276949
    151 O21         5.2090    2.0480    3.8670 o         1 MOL     -0.516976
    152 C52         2.6650    1.4320    1.7000 c3        1 MOL     -0.045255
    153 C53         1.8490    1.9890    0.5570 c3        1 MOL      0.094263
    154 C54         0.4080    1.4640    0.4930 c         1 MOL      0.360544
    155 O22        -0.4180    1.9410   -0.3050 o         1 MOL     -0.661871
    156 O23         0.0210    0.4630    1.1300 o         1 MOL     -0.661871
    157 H67         4.5180    1.3660   -0.2760 hn        1 MOL     -0.233577
    158 H68         3.9990    3.0450    2.0790 h1        1 MOL      0.087338
    159 H69         2.2390    1.4520    2.7060 hc        1 MOL      0.054841
    160 H70         2.7180    0.3730    1.4470 hc        1 MOL      0.054841
    161 H71         2.2750    1.6390   -0.3860 hc        1 MOL      0.056506
    162 H72         1.9250    3.0770    0.5820 hc        1 MOL      0.056506
    163 N14         5.5340    0.1750    2.6920 n         1 MOL      0.106932
    164 C55         6.5230   -0.4120    3.5230 c3        1 MOL     -0.200674
    165 H73         6.2370   -0.2890    4.5680 h1        1 MOL      0.064017
    166 H74         6.6080   -1.4740    3.2920 h1        1 MOL      0.064017
    167 H75         7.4820    0.0770    3.3500 h1        1 MOL      0.064017
    168 H76         5.3400   -0.3660    1.8650 hn        1 MOL      0.075350
    169 Ca1        -2.3080   -0.0760   -0.1820 Ca        1 MOL      1.687829
    170 O24        -1.9740   -0.2950    2.6150 oh        1 MOL     -0.773116
    171 H77        -1.1940   -0.0410    2.1180 ho        1 MOL      0.385311
    172 H78        -1.6760   -0.3030    3.5290 ho        1 MOL      0.385311
    173 O25        -4.3050   -0.7760    1.6130 oh        1 MOL     -0.773116
    174 H79        -5.1200   -0.8240    2.1140 ho        1 MOL      0.385311
    175 H80        -3.6250   -0.9270    2.2750 ho        1 MOL      0.385311
@<TRIPOS>BOND
     1    1    2 1   
     2    1    4 1   
     3    1    5 1   
     4    1    6 1   
     5    2    3 2   
     6    2    7 1   
     7    7    8 1   
     8    7   15 1   
     9    8    9 1   
    10    8   11 1   
    11    8   16 1   
    12    9   10 2   
    13    9   19 1   
    14   11   12 1   
    15   11   17 1   
    16   11   18 1   
    17   12   13 1   
    18   12   14 1   
    19   19   20 1   
    20   19   24 1   
    21   20   21 1   
    22   20   23 1   
    23   20   25 1   
    24   21   22 2   
    25   21   29 1   
    26   23   26 1   
    27   23   27 1   
    28   23   28 1   
    29   29   30 1   
    30   29   37 1   
    31   30   31 1   
    32   30   33 1   
    33   30   38 1   
    34   31   32 2   
    35   31   41 1   
    36   33   34 1   
    37   33   39 1   
    38   33   40 1   
    39   34   35 1   
    40   34   36 1   
    41   41   42 1   
    42   41   45 1   
    43   42   43 1   
    44   42   46 1   
    45   42   47 1   
    46   43   44 2   
    47   43   48 1   
    48   48   49 1   
    49   48   56 1   
    50   49   50 1   
    51   49   52 1   
    52   49   57 1   
    53   50   51 2   
    54   50   62 1   
    55   52   53 1   
    56   52   58 1   
    57   52   59 1   
    58   53   54 1   
    59   53   55 2   
    60   54   60 1   
    61   54   61 1   
    62   62   63 1   
    63   62   66 1   
    64   63   64 1   
    65   63   67 1   
    66   63   68 1   
    67   64   65 2   
    68   64   69 1   
    69   69   70 1   
    70   69   76 1   
    71   70   71 1   
    72   70   73 1   
    73   70   77 1   
    74   71   72 2   
    75   71   83 1   
    76   73   74 1   
    77   73   75 1   
    78   73   78 1   
    79   74   80 1   
    80   74   81 1   
    81   74   82 1   
    82   75   79 1   
    83   83   84 1   
    84   83   91 1   
    85   84   85 1   
    86   84   87 1   
    87   84   92 1   
    88   85   86 2   
    89   85  102 1   
    90   87   88 1   
    91   87   89 1   
    92   87   93 1   
    93   88   90 1   
    94   88   94 1   
    95   88   95 1   
    96   89   96 1   
    97   89   97 1   
    98   89   98 1   
    99   90   99 1   
   100   90  100 1   
   101   90  101 1   
   102  102  103 1   
   103  102  110 1   
   104  103  104 1   
   105  103  106 1   
   106  103  111 1   
   107  104  105 2   
   108  104  114 1   
   109  106  107 1   
   110  106  112 1   
   111  106  113 1   
   112  107  108 1   
   113  107  109 1   
   114  114  115 1   
   115  114  125 1   
   116  115  116 1   
   117  115  118 1   
   118  115  126 1   
   119  116  117 2   
   120  116  134 1   
   121  118  119 1   
   122  118  127 1   
   123  118  128 1   
   124  119  120 ar  
   125  119  121 ar  
   126  120  122 ar  
   127  120  129 1   
   128  121  123 ar  
   129  121  130 1   
   130  122  124 ar  
   131  122  131 1   
   132  123  124 ar  
   133  123  132 1   
   134  124  133 1   
   135  134  135 1   
   136  134  140 1   
   137  135  136 1   
   138  135  138 1   
   139  135  141 1   
   140  136  137 2   
   141  136  148 1   
   142  138  139 1   
   143  138  142 1   
   144  138  143 1   
   145  139  140 1   
   146  139  144 1   
   147  139  145 1   
   148  140  146 1   
   149  140  147 1   
   150  148  149 1   
   151  148  157 1   
   152  149  150 1   
   153  149  152 1   
   154  149  158 1   
   155  150  151 2   
   156  150  163 1   
   157  152  153 1   
   158  152  159 1   
   159  152  160 1   
   160  153  154 1   
   161  153  161 1   
   162  153  162 1   
   163  154  155 1   
   164  154  156 1   
   165  163  164 1   
   166  163  168 1   
   167  164  165 1   
   168  164  166 1   
   169  164  167 1   
   170  170  171 1   
   171  170  172 1   
   172  173  174 1   
   173  173  175 1   
@<TRIPOS>SUBSTRUCTURE
     1 MOL         1 TEMP              0 ****  ****    0 ROOT
