@<TRIPOS>MOLECULE
MOL
  189   185     1     0     0
SMALL
resp


@<TRIPOS>ATOM
      1 C1          0.7090   -3.7570    6.1900 c3        1 MOL     -0.397004
      2 C2          1.1260   -3.2930    4.8110 c         1 MOL      0.795569
      3 O1          1.2640   -2.0710    4.6720 o         1 MOL     -0.631099
      4 H1          0.9280   -2.9760    6.9180 hc        1 MOL      0.097812
      5 H2         -0.3600   -3.9680    6.1950 hc        1 MOL      0.097812
      6 H3          1.2580   -4.6610    6.4520 hc        1 MOL      0.097812
      7 N1          1.4600   -4.2050    3.8900 n         1 MOL     -0.697460
      8 C3          2.0070   -3.8910    2.6270 c3        1 MOL      0.249155
      9 C4          1.5650   -5.0160    1.6470 c         1 MOL      0.536712
     10 O2          1.4530   -6.2060    2.0620 o         1 MOL     -0.602069
     11 C5          3.5200   -3.7440    2.8240 c3        1 MOL     -0.145473
     12 C6          4.2520   -3.2400    1.5880 c         1 MOL      0.557925
     13 O3          5.4290   -3.5800    1.3830 o         1 MOL     -0.632109
     14 O4          3.7560   -2.3720    0.8220 o         1 MOL     -0.632109
     15 H4          1.4240   -5.1830    4.1530 hn        1 MOL      0.333900
     16 H5          1.6250   -2.9110    2.3350 h1        1 MOL      0.019770
     17 H6          4.0280   -4.6580    3.1200 hc        1 MOL      0.042834
     18 H7          3.6440   -3.0160    3.6200 hc        1 MOL      0.042834
     19 N2          1.2920   -4.6270    0.4000 n         1 MOL     -0.146049
     20 C7          1.1870   -5.5060   -0.8020 c3        1 MOL     -0.042920
     21 C8          2.4020   -5.3610   -1.7390 c         1 MOL      0.442694
     22 O5          2.8910   -6.3540   -2.3600 o         1 MOL     -0.571880
     23 C9         -0.0370   -5.0410   -1.6440 c3        1 MOL      0.179174
     24 C10        -1.2880   -5.5470   -0.7370 c3        1 MOL     -0.140399
     25 C11        -0.0910   -5.7240   -3.0370 c3        1 MOL     -0.194786
     26 C12        -2.5610   -5.0520   -1.4080 c3        1 MOL     -0.153905
     27 H8          1.1210   -3.6480    0.2730 hn        1 MOL     -0.094237
     28 H9          1.0770   -6.5430   -0.4780 h1        1 MOL      0.066262
     29 H10        -0.0370   -3.9780   -1.8680 hc        1 MOL      0.067386
     30 H11        -1.1010   -5.1370    0.2500 hc        1 MOL      0.038998
     31 H12        -1.3890   -6.6330   -0.7420 hc        1 MOL      0.038998
     32 H13        -1.0400   -5.6720   -3.5600 hc        1 MOL      0.042644
     33 H14         0.6460   -5.2130   -3.6570 hc        1 MOL      0.042644
     34 H15         0.2160   -6.7690   -2.9340 hc        1 MOL      0.042644
     35 H16        -3.3720   -5.0180   -0.6840 hc        1 MOL      0.053601
     36 H17        -2.4560   -4.0040   -1.6820 hc        1 MOL      0.053601
     37 H18        -2.8290   -5.6790   -2.2510 hc        1 MOL      0.053601
     38 N3          2.8520   -4.0900   -1.9270 n         1 MOL     -0.296340
     39 C13         3.7440   -3.7350   -3.0920 c3        1 MOL      0.059334
     40 C14         5.1570   -3.2680   -2.7340 c         1 MOL      0.363441
     41 O6          5.9630   -3.3610   -3.6450 o         1 MOL     -0.542861
     42 C15         3.0020   -2.7200   -3.9470 c3        1 MOL     -0.262047
     43 C16         2.5820   -1.4880   -3.1780 c         1 MOL      0.696077
     44 O7          2.9500   -1.3320   -1.9900 o         1 MOL     -0.681564
     45 O8          1.8050   -0.6990   -3.7270 o         1 MOL     -0.681564
     46 H19         2.3200   -3.3590   -1.4860 hn        1 MOL      0.288786
     47 H20         3.8380   -4.6090   -3.7310 h1        1 MOL      0.087565
     48 H21         2.1470   -3.2150   -4.4210 hc        1 MOL      0.075589
     49 H22         3.6770   -2.4100   -4.7360 hc        1 MOL      0.075589
     50 N4          5.5710   -2.8130   -1.5230 n         1 MOL     -0.090085
     51 C17         7.0060   -2.5070   -1.2140 c3        1 MOL     -0.013684
     52 C18         7.4580   -1.1630   -1.6870 c         1 MOL      0.357906
     53 O9          8.5450   -0.9320   -2.1690 o         1 MOL     -0.582798
     54 H23         4.9530   -2.7510   -0.7220 hn        1 MOL      0.075835
     55 H24         7.6390   -3.3060   -1.5920 h1        1 MOL      0.072166
     56 H25         7.2660   -2.6670   -0.1660 h1        1 MOL      0.072166
     57 N5          6.5670   -0.1430   -1.7490 n         1 MOL     -0.031348
     58 C19         6.7140    1.3010   -2.2270 c3        1 MOL     -0.024038
     59 C20         7.0560    2.3440   -1.1480 c         1 MOL      0.369027
     60 O10         7.4280    3.4870   -1.4340 o         1 MOL     -0.539955
     61 C21         5.5680    1.8930   -2.9570 c3        1 MOL     -0.184200
     62 C22         4.2100    1.7960   -2.2250 c         1 MOL      0.799538
     63 O11         4.0860    1.3600   -1.0760 o         1 MOL     -0.710116
     64 O12         3.2130    2.3230   -2.7350 o         1 MOL     -0.710116
     65 H26         5.7000   -0.3710   -1.2860 hn        1 MOL      0.022731
     66 H27         7.5470    1.4160   -2.9240 h1        1 MOL      0.105914
     67 H28         5.4890    1.2520   -3.8320 hc        1 MOL      0.058416
     68 H29         5.7440    2.8910   -3.3720 hc        1 MOL      0.058416
     69 N6          6.9670    1.9420    0.0780 n         1 MOL     -0.164512
     70 C23         7.2050    2.7320    1.2540 c3        1 MOL     -0.111940
     71 C24         6.0250    3.7510    1.4590 c         1 MOL      0.512472
     72 O13         6.2680    4.7850    2.1390 o         1 MOL     -0.586736
     73 H30         6.5230    1.0490    0.2710 hn        1 MOL      0.132052
     74 H31         8.1680    3.2380    1.3360 h1        1 MOL      0.082604
     75 H32         7.1750    1.9220    1.9770 h1        1 MOL      0.082604
     76 N7          4.7840    3.5470    0.9430 n         1 MOL     -0.388223
     77 C25         3.5660    4.3650    1.1550 c3        1 MOL      0.023886
     78 C26         2.3270    3.4940    1.3810 c         1 MOL      0.523971
     79 O14         2.2970    2.3830    0.9220 o         1 MOL     -0.514946
     80 C27         3.2430    5.2610   -0.0800 c3        1 MOL     -0.152553
     81 C28         4.4850    6.1240   -0.2910 c3        1 MOL     -0.125955
     82 C29         4.2540    7.3050   -1.2100 c         1 MOL      0.686538
     83 N8          5.2170    8.2250   -1.3880 n         1 MOL     -0.852638
     84 O15         3.1710    7.5040   -1.6930 o         1 MOL     -0.574357
     85 H33         4.5920    2.7300    0.3940 hn        1 MOL      0.294721
     86 H34         3.6040    5.0400    2.0170 h1        1 MOL      0.047901
     87 H35         2.3280    5.8260    0.0500 hc        1 MOL      0.094814
     88 H36         3.2210    4.5080   -0.8690 hc        1 MOL      0.094814
     89 H37         5.2720    5.4840   -0.7110 hc        1 MOL      0.080797
     90 H38         4.7590    6.5450    0.6720 hc        1 MOL      0.080797
     91 H39         6.0920    8.2440   -0.8960 hn        1 MOL      0.357110
     92 H40         4.9440    8.9830   -2.0030 hn        1 MOL      0.357110
     93 N9          1.2670    3.8620    2.1310 n         1 MOL     -0.598883
     94 C30         0.0940    3.0940    2.3600 c3        1 MOL      0.223789
     95 C31        -1.1030    3.3610    1.3910 c         1 MOL      0.694182
     96 O16        -1.3950    4.4700    1.1130 o         1 MOL     -0.623024
     97 C32        -0.3640    3.1340    3.8100 c3        1 MOL      0.179565
     98 C33        -0.6840    4.5500    4.1460 c3        1 MOL     -0.133827
     99 C34        -1.5710    2.2520    4.1340 c3        1 MOL     -0.133827
    100 H41         1.2880    4.8030    2.5010 hn        1 MOL      0.294621
    101 H42         0.4150    2.0570    2.2720 h1        1 MOL     -0.043546
    102 H43         0.4270    2.7800    4.4870 hc        1 MOL     -0.015514
    103 H44        -0.9070    4.6340    5.2080 hc        1 MOL      0.005390
    104 H45         0.1440    5.2370    3.9250 hc        1 MOL      0.005390
    105 H46        -1.5780    4.7990    3.5680 hc        1 MOL      0.005390
    106 H47        -1.5630    2.1880    5.2190 hc        1 MOL      0.005390
    107 H48        -2.5080    2.5640    3.6720 hc        1 MOL      0.005390
    108 H49        -1.3670    1.2100    3.8720 hc        1 MOL      0.005390
    109 N10        -1.5990    2.3080    0.7470 n         1 MOL     -0.326294
    110 C35        -2.7810    2.4740   -0.1640 c3        1 MOL      0.306837
    111 C36        -4.1920    2.1660    0.5510 c         1 MOL     -0.092601
    112 O17        -4.2620    1.4310    1.5470 o         1 MOL     -0.137556
    113 C37        -2.5490    1.5910   -1.3840 c3        1 MOL     -0.409584
    114 C38        -3.7900    1.4210   -2.2570 c         1 MOL      0.757090
    115 N11        -4.3400    2.5080   -2.6850 n         1 MOL     -0.836430
    116 O18        -4.3050    0.3350   -2.3680 o         1 MOL     -0.567869
    117 H50        -1.1600    1.4190    0.9260 hn        1 MOL      0.110605
    118 H51        -2.8340    3.5020   -0.5030 h1        1 MOL      0.019230
    119 H52        -2.0320    0.6660   -1.1660 hc        1 MOL      0.142972
    120 H53        -1.7780    2.1130   -1.9430 hc        1 MOL      0.142972
    121 H54        -3.8290    3.3800   -2.6980 hn        1 MOL      0.377504
    122 H55        -5.1060    2.3230   -3.3070 hn        1 MOL      0.377504
    123 N12        -5.3840    2.5920    0.0840 n         1 MOL     -0.021087
    124 C39        -6.7190    2.4330    0.7260 c3        1 MOL     -0.090216
    125 C40        -7.1380    0.9250    0.8510 c         1 MOL      0.515212
    126 O19        -7.8910    0.6590    1.7370 o         1 MOL     -0.569344
    127 C41        -7.7780    3.1840   -0.0260 c3        1 MOL     -0.129378
    128 C42        -7.8540    3.0040   -1.5240 ca        1 MOL     -0.031782
    129 C43        -8.5360    1.8930   -2.0730 ca        1 MOL     -0.069106
    130 C44        -7.1570    3.9370   -2.3310 ca        1 MOL     -0.069106
    131 C45        -8.5390    1.7590   -3.4590 ca        1 MOL     -0.402879
    132 C46        -7.2990    3.8770   -3.7080 ca        1 MOL     -0.402879
    133 C47        -7.9680    2.7240   -4.2980 ca        1 MOL      0.483977
    134 O20        -8.0500    2.5860   -5.6320 oh        1 MOL     -0.559450
    135 H56        -5.3350    3.1200   -0.7750 hn        1 MOL      0.105828
    136 H57        -6.6110    2.9360    1.6880 h1        1 MOL      0.116095
    137 H58        -7.5440    4.2370    0.1320 hc        1 MOL      0.057408
    138 H59        -8.7930    3.1110    0.3680 hc        1 MOL      0.057408
    139 H60        -9.1830    1.3770   -1.3820 ha        1 MOL      0.132791
    140 H61        -6.5550    4.7450   -1.9460 ha        1 MOL      0.132791
    141 H62        -9.0920    0.9380   -3.9090 ha        1 MOL      0.175068
    142 H63        -6.6890    4.5390   -4.2940 ha        1 MOL      0.175068
    143 H64        -8.6050    1.8460   -5.8590 ho        1 MOL      0.413287
    144 N13        -6.5490   -0.0770    0.1300 n         1 MOL     -0.199301
    145 C48        -6.6620   -1.4790    0.4410 c3        1 MOL     -0.212599
    146 C49        -5.6760   -1.9880    1.5220 c         1 MOL      0.379114
    147 O21        -5.8010   -3.0950    2.0990 o         1 MOL     -0.545489
    148 C50        -6.3600   -2.3040   -0.8110 c3        1 MOL      0.111815
    149 C51        -7.5220   -1.9800   -1.8890 c3        1 MOL     -0.332117
    150 C52        -7.3360   -3.0510   -2.9880 c         1 MOL      0.644178
    151 O22        -6.4550   -2.9800   -3.9150 o         1 MOL     -0.711095
    152 O23        -7.9930   -4.1110   -2.9410 o         1 MOL     -0.711095
    153 H65        -5.9930    0.2710   -0.6470 hn        1 MOL      0.261668
    154 H66        -7.7010   -1.6160    0.7390 h1        1 MOL      0.148056
    155 H67        -6.4970   -3.3600   -0.5630 hc        1 MOL      0.047339
    156 H68        -5.3350   -2.1560   -1.1670 hc        1 MOL      0.047339
    157 H69        -7.2780   -1.0030   -2.3010 hc        1 MOL      0.065945
    158 H70        -8.5300   -1.9920   -1.4860 hc        1 MOL      0.065945
    159 N14        -4.6160   -1.2360    1.8050 n         1 MOL     -0.147431
    160 C53        -3.6860   -1.5240    2.8940 c3        1 MOL      0.113309
    161 C54        -4.0650   -0.7610    4.1850 c         1 MOL      0.351392
    162 O24        -3.8140   -1.2500    5.2850 o         1 MOL     -0.560360
    163 C55        -2.2700   -1.1380    2.4730 c3        1 MOL     -0.374836
    164 C56        -1.5760   -1.9650    1.3180 c3        1 MOL      0.095162
    165 C57        -0.3050   -1.3500    0.7080 c         1 MOL      0.687205
    166 O25         0.5220   -1.9960    0.0370 o         1 MOL     -0.668095
    167 O26        -0.0110   -0.1190    0.8540 o         1 MOL     -0.668095
    168 H71        -4.4630   -0.4560    1.1920 hn        1 MOL      0.131712
    169 H72        -3.7300   -2.5900    3.0980 h1        1 MOL      0.070200
    170 H73        -1.6990   -1.3690    3.3700 hc        1 MOL      0.138619
    171 H74        -2.3190   -0.0800    2.2200 hc        1 MOL      0.138619
    172 H75        -2.3710   -1.9580    0.5720 hc        1 MOL      0.009988
    173 H76        -1.4370   -3.0060    1.6180 hc        1 MOL      0.009988
    174 N15        -4.6450    0.4230    4.1030 n         1 MOL      0.006030
    175 C58        -5.2160    1.1530    5.2170 c3        1 MOL     -0.090081
    176 H77        -4.4430    1.7630    5.6860 h1        1 MOL      0.042266
    177 H78        -6.0180    1.7980    4.8570 h1        1 MOL      0.042266
    178 H79        -5.6160    0.4490    5.9470 h1        1 MOL      0.042266
    179 H80        -4.8330    0.7640    3.1740 hn        1 MOL      0.003309
    180 Ca1         2.6010   -0.2380    0.3220 Ca        1 MOL      1.814522
    181 O27         2.4800   -0.2840    2.9670 oh        1 MOL     -0.948774
    182 H81         2.1650   -0.9340    3.5950 ho        1 MOL      0.442952
    183 H82         2.7070    0.4710    3.5070 ho        1 MOL      0.442952
    184 O28         1.2560    1.0370   -1.7640 oh        1 MOL     -0.948774
    185 H83         1.9560    1.6570   -1.9740 ho        1 MOL      0.442952
    186 H84         1.3520    0.3230   -2.3930 ho        1 MOL      0.442952
    187 O29         5.2860   -0.3250    1.1350 oh        1 MOL     -0.948774
    188 H85         6.1780   -0.3740    1.4790 ho        1 MOL      0.442952
    189 H86         4.9060   -1.1730    1.3300 ho        1 MOL      0.442952
@<TRIPOS>BOND
     1    1    2 1   
     2    1    4 1   
     3    1    5 1   
     4    1    6 1   
     5    2    3 2   
     6    2    7 1   
     7    7    8 1   
     8    7   15 1   
     9    8    9 1   
    10    8   11 1   
    11    8   16 1   
    12    9   10 2   
    13    9   19 1   
    14   11   12 1   
    15   11   17 1   
    16   11   18 1   
    17   12   13 1   
    18   12   14 1   
    19   19   20 1   
    20   19   27 1   
    21   20   21 1   
    22   20   23 1   
    23   20   28 1   
    24   21   22 2   
    25   21   38 1   
    26   23   24 1   
    27   23   25 1   
    28   23   29 1   
    29   24   26 1   
    30   24   30 1   
    31   24   31 1   
    32   25   32 1   
    33   25   33 1   
    34   25   34 1   
    35   26   35 1   
    36   26   36 1   
    37   26   37 1   
    38   38   39 1   
    39   38   46 1   
    40   39   40 1   
    41   39   42 1   
    42   39   47 1   
    43   40   41 2   
    44   40   50 1   
    45   42   43 1   
    46   42   48 1   
    47   42   49 1   
    48   43   44 1   
    49   43   45 1   
    50   50   51 1   
    51   50   54 1   
    52   51   52 1   
    53   51   55 1   
    54   51   56 1   
    55   52   53 2   
    56   52   57 1   
    57   57   58 1   
    58   57   65 1   
    59   58   59 1   
    60   58   61 1   
    61   58   66 1   
    62   59   60 2   
    63   59   69 1   
    64   61   62 1   
    65   61   67 1   
    66   61   68 1   
    67   62   63 1   
    68   62   64 1   
    69   69   70 1   
    70   69   73 1   
    71   70   71 1   
    72   70   74 1   
    73   70   75 1   
    74   71   72 2   
    75   71   76 1   
    76   76   77 1   
    77   76   85 1   
    78   77   78 1   
    79   77   80 1   
    80   77   86 1   
    81   78   79 2   
    82   78   93 1   
    83   80   81 1   
    84   80   87 1   
    85   80   88 1   
    86   81   82 1   
    87   81   89 1   
    88   81   90 1   
    89   82   83 1   
    90   82   84 2   
    91   83   91 1   
    92   83   92 1   
    93   93   94 1   
    94   93  100 1   
    95   94   95 1   
    96   94   97 1   
    97   94  101 1   
    98   95   96 2   
    99   95  109 1   
   100   97   98 1   
   101   97   99 1   
   102   97  102 1   
   103   98  103 1   
   104   98  104 1   
   105   98  105 1   
   106   99  106 1   
   107   99  107 1   
   108   99  108 1   
   109  109  110 1   
   110  109  117 1   
   111  110  111 1   
   112  110  113 1   
   113  110  118 1   
   114  111  112 2   
   115  111  123 1   
   116  113  114 1   
   117  113  119 1   
   118  113  120 1   
   119  114  115 1   
   120  114  116 2   
   121  115  121 1   
   122  115  122 1   
   123  123  124 1   
   124  123  135 1   
   125  124  125 1   
   126  124  127 1   
   127  124  136 1   
   128  125  126 2   
   129  125  144 1   
   130  127  128 1   
   131  127  137 1   
   132  127  138 1   
   133  128  129 ar  
   134  128  130 ar  
   135  129  131 ar  
   136  129  139 1   
   137  130  132 ar  
   138  130  140 1   
   139  131  133 ar  
   140  131  141 1   
   141  132  133 ar  
   142  132  142 1   
   143  133  134 1   
   144  134  143 1   
   145  144  145 1   
   146  144  153 1   
   147  145  146 1   
   148  145  148 1   
   149  145  154 1   
   150  146  147 2   
   151  146  159 1   
   152  148  149 1   
   153  148  155 1   
   154  148  156 1   
   155  149  150 1   
   156  149  157 1   
   157  149  158 1   
   158  150  151 1   
   159  150  152 1   
   160  159  160 1   
   161  159  168 1   
   162  160  161 1   
   163  160  163 1   
   164  160  169 1   
   165  161  162 2   
   166  161  174 1   
   167  163  164 1   
   168  163  170 1   
   169  163  171 1   
   170  164  165 1   
   171  164  172 1   
   172  164  173 1   
   173  165  166 1   
   174  165  167 1   
   175  174  175 1   
   176  174  179 1   
   177  175  176 1   
   178  175  177 1   
   179  175  178 1   
   180  181  182 1   
   181  181  183 1   
   182  184  185 1   
   183  184  186 1   
   184  187  188 1   
   185  187  189 1   
@<TRIPOS>SUBSTRUCTURE
     1 MOL         1 TEMP              0 ****  ****    0 ROOT
