@<TRIPOS>MOLECULE
MOL
  179   176     1     0     0
SMALL
resp


@<TRIPOS>ATOM
      1 C1          1.3810    2.3310    6.7690 c3        1 MOL     -0.347242
      2 C2          1.1760    1.8150    5.3410 c         1 MOL      0.697596
      3 O1          2.1070    1.4220    4.6200 o         1 MOL     -0.571399
      4 H1          0.4180    2.6120    7.1950 hc        1 MOL      0.094178
      5 H2          1.8320    1.5470    7.3770 hc        1 MOL      0.094178
      6 H3          2.0380    3.2010    6.7500 hc        1 MOL      0.094178
      7 N1         -0.0540    1.9250    4.7860 n         1 MOL     -0.537110
      8 C3         -0.3960    1.9400    3.3460 c3        1 MOL     -0.206754
      9 C4         -0.2510    3.3610    2.7970 c         1 MOL      0.920040
     10 O2         -0.5220    4.3650    3.4780 o         1 MOL     -0.617332
     11 C5         -1.7730    1.3440    3.2010 c3        1 MOL     -0.251055
     12 C6         -2.1820    1.1100    1.7080 c         1 MOL      0.895830
     13 O3         -3.3230    0.6430    1.4890 o         1 MOL     -0.815519
     14 O4         -1.2880    1.3260    0.8530 o         1 MOL     -0.815519
     15 H4         -0.8770    2.1190    5.3380 hn        1 MOL      0.311946
     16 H5          0.3360    1.2890    2.8570 h1        1 MOL      0.063009
     17 H6         -2.4020    2.1230    3.6110 hc        1 MOL      0.078640
     18 H7         -1.8120    0.4300    3.7990 hc        1 MOL      0.078640
     19 N2          0.2640    3.4950    1.5630 n         1 MOL     -0.590763
     20 C7          0.7810    4.6690    0.8780 c3        1 MOL     -0.169833
     21 C8         -0.2710    5.4600    0.0620 c         1 MOL      0.511684
     22 O5         -0.1550    6.6610   -0.1540 o         1 MOL     -0.578566
     23 C9          2.0710    4.3580    0.0920 c3        1 MOL      0.201350
     24 C10         2.8250    5.6170   -0.4620 c3        1 MOL     -0.531652
     25 C11         4.1950    5.2490   -1.2030 c3        1 MOL      0.060682
     26 C12         4.9100    6.5210   -1.5950 c3        1 MOL      0.040348
     27 N3          5.9960    6.2440   -2.5420 n4        1 MOL     -0.382559
     28 H8          0.1780    2.6280    1.0470 hn        1 MOL      0.333372
     29 H9          0.9910    5.2980    1.7450 h1        1 MOL      0.125286
     30 H10         1.7240    3.6950   -0.6930 hc        1 MOL      0.054543
     31 H11         2.7530    3.7720    0.7180 hc        1 MOL      0.054543
     32 H12         3.1630    6.1630    0.4130 hc        1 MOL      0.173180
     33 H13         2.1710    6.1940   -1.1110 hc        1 MOL      0.173180
     34 H14         4.0430    4.6920   -2.1300 hc        1 MOL      0.047170
     35 H15         4.7930    4.7200   -0.4610 hc        1 MOL      0.047170
     36 H16         5.2280    6.8870   -0.6240 hx        1 MOL      0.086227
     37 H17         4.2170    7.2860   -1.9460 hx        1 MOL      0.086227
     38 H18         5.6440    6.1450   -3.4830 hn        1 MOL      0.332890
     39 H19         6.6620    6.9990   -2.5690 hn        1 MOL      0.332890
     40 H20         6.4750    5.3740   -2.3240 hn        1 MOL      0.332890
     41 N4         -1.2070    4.7390   -0.5580 n         1 MOL     -0.262075
     42 C13        -2.4460    5.3130   -1.2110 c3        1 MOL      0.048932
     43 C14        -3.6910    4.8410   -0.4700 c         1 MOL      0.441254
     44 O6         -4.7330    5.2010   -0.9830 o         1 MOL     -0.504470
     45 C15        -2.4810    4.9800   -2.7300 c3        1 MOL     -0.333402
     46 C16        -2.5470    3.4450   -2.9040 c         1 MOL      0.768200
     47 O7         -2.6610    3.0010   -4.0640 o         1 MOL     -0.710335
     48 O8         -2.4330    2.6380   -1.9370 o         1 MOL     -0.710335
     49 H21        -0.9860    3.7520   -0.6050 hn        1 MOL      0.204839
     50 H22        -2.4620    6.3930   -1.0740 h1        1 MOL      0.110001
     51 H23        -1.6620    5.4910   -3.2340 hc        1 MOL      0.112148
     52 H24        -3.4310    5.3950   -3.0520 hc        1 MOL      0.112148
     53 N5         -3.5440    4.2030    0.6960 n         1 MOL     -0.284025
     54 C17        -4.6780    3.8280    1.5130 c3        1 MOL      0.063406
     55 C18        -5.7430    3.0060    0.7390 c         1 MOL      0.332745
     56 O9         -6.9350    3.1280    1.1000 o         1 MOL     -0.549421
     57 H25        -2.6540    4.0310    1.1390 hn        1 MOL      0.179843
     58 H26        -5.1270    4.7320    1.9370 h1        1 MOL      0.048788
     59 H27        -4.4040    3.2700    2.4020 h1        1 MOL      0.048788
     60 N6         -5.4200    2.3510   -0.3380 n         1 MOL      0.024957
     61 C19        -6.2490    1.4160   -1.0720 c3        1 MOL     -0.273473
     62 C20        -6.4850    0.0870   -0.3000 c         1 MOL      0.492697
     63 O10        -7.2720   -0.7170   -0.7980 o         1 MOL     -0.483145
     64 C21        -5.6640    1.2520   -2.5210 c3        1 MOL     -0.180627
     65 C22        -4.5340    0.1750   -2.7070 c         1 MOL      0.699117
     66 N7         -4.3170   -0.0790   -3.9230 n         1 MOL     -0.713514
     67 O11        -3.9750   -0.3550   -1.7460 o         1 MOL     -0.591825
     68 H28        -4.4570    2.3180   -0.5970 hn        1 MOL      0.088031
     69 H29        -7.2150    1.8790   -1.2410 h1        1 MOL      0.183527
     70 H30        -5.3630    2.1590   -3.0370 hc        1 MOL      0.091767
     71 H31        -6.5170    0.8790   -3.1030 hc        1 MOL      0.091767
     72 H32        -4.9660    0.3240   -4.5900 hn        1 MOL      0.343960
     73 H33        -3.7990   -0.8730   -4.2760 hn        1 MOL      0.343960
     74 N8         -6.0290   -0.1120    0.9770 n         1 MOL     -0.346357
     75 C23        -6.3630   -1.2250    1.8400 c3        1 MOL     -0.091951
     76 C24        -5.4460   -2.4530    1.7250 c         1 MOL      0.500805
     77 O12        -5.7350   -3.4880    2.3020 o         1 MOL     -0.553069
     78 H34        -5.2140    0.4060    1.2530 hn        1 MOL      0.327176
     79 H35        -7.3730   -1.5990    1.6560 h1        1 MOL      0.096262
     80 H36        -6.3540   -1.0150    2.9110 h1        1 MOL      0.096262
     81 N9         -4.3130   -2.3510    0.9470 n         1 MOL     -0.120781
     82 C25        -3.2380   -3.3610    1.0090 c3        1 MOL      0.165245
     83 C26        -1.8920   -2.7170    0.9240 c         1 MOL      0.342063
     84 O13        -1.6940   -1.6920    0.2280 o         1 MOL     -0.444908
     85 C27        -3.3350   -4.3450   -0.1920 c3        1 MOL     -0.061209
     86 C28        -4.7680   -4.7780   -0.5110 ca        1 MOL     -0.045148
     87 C29        -5.6420   -4.0780   -1.2810 ca        1 MOL     -0.064049
     88 C30        -5.1660   -6.0090    0.0010 ca        1 MOL     -0.064049
     89 C31        -6.9030   -4.5280   -1.6910 ca        1 MOL     -0.382001
     90 C32        -6.4730   -6.4630   -0.3290 ca        1 MOL     -0.382001
     91 C33        -7.3650   -5.7160   -1.1160 ca        1 MOL      0.483151
     92 O14        -8.5520   -6.2710   -1.4690 oh        1 MOL     -0.500561
     93 H37        -4.0560   -1.4730    0.5380 hn        1 MOL      0.070414
     94 H38        -3.3280   -3.8650    1.9750 h1        1 MOL      0.031432
     95 H39        -2.7800   -5.2560    0.0330 hc        1 MOL      0.031345
     96 H40        -2.9690   -3.8880   -1.1090 hc        1 MOL      0.031345
     97 H41        -5.3250   -3.1260   -1.6720 ha        1 MOL      0.112193
     98 H42        -4.6620   -6.7000    0.6610 ha        1 MOL      0.112193
     99 H43        -7.5020   -3.9480   -2.3730 ha        1 MOL      0.167688
    100 H44        -6.8530   -7.3640    0.1340 ha        1 MOL      0.167688
    101 H45        -8.7160   -7.0880   -0.9890 ho        1 MOL      0.341210
    102 N10        -0.7430   -3.4330    1.3170 n         1 MOL     -0.426185
    103 C34         0.6080   -2.9300    1.1420 c3        1 MOL     -0.067773
    104 C35         1.4790   -3.9710    0.4320 c         1 MOL      0.534686
    105 O15         1.3330   -5.1930    0.7030 o         1 MOL     -0.551454
    106 C36         1.2920   -2.4830    2.4760 c3        1 MOL      0.012820
    107 C37         1.1850   -3.6000    3.5570 c3        1 MOL      0.028826
    108 C38         0.6090   -1.2610    3.0150 c3        1 MOL     -0.085021
    109 C39         1.7640   -3.1990    4.9350 c3        1 MOL     -0.197884
    110 H46        -0.8590   -4.2960    1.8280 hn        1 MOL      0.278507
    111 H47         0.6020   -2.1830    0.3550 h1        1 MOL      0.099005
    112 H48         2.3390   -2.2150    2.3290 hc        1 MOL      0.008982
    113 H49         1.6140   -4.5210    3.1660 hc        1 MOL      0.019448
    114 H50         0.1360   -3.7750    3.8120 hc        1 MOL      0.019448
    115 H51         0.7830   -0.5320    2.2350 hc        1 MOL      0.070216
    116 H52        -0.4590   -1.4530    3.1950 hc        1 MOL      0.070216
    117 H53         1.0190   -0.9450    3.9800 hc        1 MOL      0.070216
    118 H54         1.0420   -2.5910    5.4740 hc        1 MOL      0.046396
    119 H55         1.8610   -4.1380    5.4870 hc        1 MOL      0.046396
    120 H56         2.7490   -2.7420    4.8250 hc        1 MOL      0.046396
    121 N11         2.3130   -3.4950   -0.5020 n         1 MOL     -0.390447
    122 C40         3.5030   -4.1620   -1.0600 c3        1 MOL      0.045604
    123 C41         4.8690   -3.8380   -0.3120 c         1 MOL      0.436562
    124 O16         4.9250   -2.9650    0.5320 o         1 MOL     -0.344510
    125 C42         3.6890   -3.7380   -2.5440 c3        1 MOL     -0.088762
    126 O17         4.1080   -2.3780   -2.6570 oh        1 MOL     -0.433264
    127 H57         2.1870   -2.5120   -0.7180 hn        1 MOL      0.341366
    128 H58         3.3630   -5.2290   -1.1850 h1        1 MOL      0.079277
    129 H59         2.7490   -3.7740   -3.1000 h1        1 MOL      0.075178
    130 H60         4.4320   -4.3540   -3.0340 h1        1 MOL      0.075178
    131 H61         4.2300   -2.0260   -3.5360 ho        1 MOL      0.372128
    132 N12         5.8750   -4.6040   -0.7800 n         1 MOL     -0.443649
    133 C43         7.2650   -4.2760   -0.5020 c3        1 MOL      0.150272
    134 C44         7.7160   -2.8010   -0.7780 c         1 MOL      0.475184
    135 O18         8.2940   -2.1980    0.1240 o         1 MOL     -0.485529
    136 C45         8.1720   -5.2390   -1.2660 c3        1 MOL     -0.307318
    137 H62         5.7430   -5.3800   -1.4150 hn        1 MOL      0.305454
    138 H63         7.4580   -4.5670    0.5360 h1        1 MOL      0.076534
    139 H64         9.2250   -4.9840   -1.1280 hc        1 MOL      0.086915
    140 H65         7.9510   -6.2600   -0.9740 hc        1 MOL      0.086915
    141 H66         7.9940   -5.1590   -2.3400 hc        1 MOL      0.086915
    142 N13         7.4100   -2.2900   -1.9760 n         1 MOL     -0.453267
    143 C46         7.7620   -0.8730   -2.1990 c3        1 MOL      0.225600
    144 C47         7.1620    0.1320   -1.3040 c         1 MOL      0.269712
    145 O19         7.7980    1.1240   -0.9300 o         1 MOL     -0.524155
    146 C48         7.4390   -0.4920   -3.6800 c3        1 MOL     -0.409003
    147 H67         6.9150   -2.7920   -2.7110 hn        1 MOL      0.299412
    148 H68         8.8470   -0.7680   -2.1180 h1        1 MOL      0.072730
    149 H69         8.0270    0.4050   -3.8710 hc        1 MOL      0.112002
    150 H70         7.7430   -1.2820   -4.3660 hc        1 MOL      0.112002
    151 H71         6.3880   -0.2030   -3.7530 hc        1 MOL      0.112002
    152 N14         5.9330   -0.0900   -0.8380 n         1 MOL      0.090142
    153 C49         5.1440    0.7660    0.0800 c3        1 MOL      0.017271
    154 C50         5.6270    0.5830    1.5300 c         1 MOL      0.431584
    155 O20         5.6850    1.5630    2.2640 o         1 MOL     -0.537003
    156 C51         3.6950    0.2880   -0.0870 c3        1 MOL      0.098576
    157 C52         3.2560    0.7850   -1.4870 c3        1 MOL     -0.072172
    158 C53         1.7630    0.5800   -1.6820 c         1 MOL      0.704927
    159 O21         1.2740   -0.4800   -1.2750 o         1 MOL     -0.743041
    160 O22         1.0170    1.4710   -2.0990 o         1 MOL     -0.743041
    161 H72         5.4430   -0.9250   -1.1210 hn        1 MOL     -0.083568
    162 H73         5.3120    1.8010   -0.2100 h1        1 MOL     -0.010030
    163 H74         3.0420    0.6650    0.7030 hc        1 MOL     -0.012288
    164 H75         3.7230   -0.8010   -0.0750 hc        1 MOL     -0.012288
    165 H76         3.8320    0.4950   -2.3570 hc        1 MOL     -0.031302
    166 H77         3.4100    1.8730   -1.4680 hc        1 MOL     -0.031302
    167 N15         6.0400   -0.6250    1.9050 n         1 MOL     -0.068205
    168 C54         6.6630   -1.0090    3.1590 c3        1 MOL     -0.210236
    169 H78         7.4530   -1.7350    2.9630 h1        1 MOL      0.091843
    170 H79         7.0900   -0.1280    3.6380 h1        1 MOL      0.091843
    171 H80         5.9160   -1.4550    3.8150 h1        1 MOL      0.091843
    172 H81         5.9240   -1.3950    1.2550 hn        1 MOL      0.079202
    173 Ca1        -1.3350    0.3110   -1.4790 Ca        1 MOL      1.728446
    174 O23        -1.2540   -2.1060   -2.6940 oh        1 MOL     -0.829926
    175 H82        -0.6340   -2.8350   -2.6680 ho        1 MOL      0.396798
    176 H83        -2.0680   -2.4950   -3.0170 ho        1 MOL      0.396798
    177 O24        -1.2800    0.7400   -4.1710 oh        1 MOL     -0.829926
    178 H84        -1.7570    1.5580   -4.3580 ho        1 MOL      0.396798
    179 H85        -0.8690    0.5100   -5.0020 ho        1 MOL      0.396798
@<TRIPOS>BOND
     1    1    2 1   
     2    1    4 1   
     3    1    5 1   
     4    1    6 1   
     5    2    3 2   
     6    2    7 1   
     7    7    8 1   
     8    7   15 1   
     9    8    9 1   
    10    8   11 1   
    11    8   16 1   
    12    9   10 2   
    13    9   19 1   
    14   11   12 1   
    15   11   17 1   
    16   11   18 1   
    17   12   13 1   
    18   12   14 1   
    19   19   20 1   
    20   19   28 1   
    21   20   21 1   
    22   20   23 1   
    23   20   29 1   
    24   21   22 2   
    25   21   41 1   
    26   23   24 1   
    27   23   30 1   
    28   23   31 1   
    29   24   25 1   
    30   24   32 1   
    31   24   33 1   
    32   25   26 1   
    33   25   34 1   
    34   25   35 1   
    35   26   27 1   
    36   26   36 1   
    37   26   37 1   
    38   27   38 1   
    39   27   39 1   
    40   27   40 1   
    41   41   42 1   
    42   41   49 1   
    43   42   43 1   
    44   42   45 1   
    45   42   50 1   
    46   43   44 2   
    47   43   53 1   
    48   45   46 1   
    49   45   51 1   
    50   45   52 1   
    51   46   47 1   
    52   46   48 1   
    53   53   54 1   
    54   53   57 1   
    55   54   55 1   
    56   54   58 1   
    57   54   59 1   
    58   55   56 2   
    59   55   60 1   
    60   60   61 1   
    61   60   68 1   
    62   61   62 1   
    63   61   64 1   
    64   61   69 1   
    65   62   63 2   
    66   62   74 1   
    67   64   65 1   
    68   64   70 1   
    69   64   71 1   
    70   65   66 1   
    71   65   67 2   
    72   66   72 1   
    73   66   73 1   
    74   74   75 1   
    75   74   78 1   
    76   75   76 1   
    77   75   79 1   
    78   75   80 1   
    79   76   77 2   
    80   76   81 1   
    81   81   82 1   
    82   81   93 1   
    83   82   83 1   
    84   82   85 1   
    85   82   94 1   
    86   83   84 2   
    87   83  102 1   
    88   85   86 1   
    89   85   95 1   
    90   85   96 1   
    91   86   87 ar  
    92   86   88 ar  
    93   87   89 ar  
    94   87   97 1   
    95   88   90 ar  
    96   88   98 1   
    97   89   91 ar  
    98   89   99 1   
    99   90   91 ar  
   100   90  100 1   
   101   91   92 1   
   102   92  101 1   
   103  102  103 1   
   104  102  110 1   
   105  103  104 1   
   106  103  106 1   
   107  103  111 1   
   108  104  105 2   
   109  104  121 1   
   110  106  107 1   
   111  106  108 1   
   112  106  112 1   
   113  107  109 1   
   114  107  113 1   
   115  107  114 1   
   116  108  115 1   
   117  108  116 1   
   118  108  117 1   
   119  109  118 1   
   120  109  119 1   
   121  109  120 1   
   122  121  122 1   
   123  121  127 1   
   124  122  123 1   
   125  122  125 1   
   126  122  128 1   
   127  123  124 2   
   128  123  132 1   
   129  125  126 1   
   130  125  129 1   
   131  125  130 1   
   132  126  131 1   
   133  132  133 1   
   134  132  137 1   
   135  133  134 1   
   136  133  136 1   
   137  133  138 1   
   138  134  135 2   
   139  134  142 1   
   140  136  139 1   
   141  136  140 1   
   142  136  141 1   
   143  142  143 1   
   144  142  147 1   
   145  143  144 1   
   146  143  146 1   
   147  143  148 1   
   148  144  145 2   
   149  144  152 1   
   150  146  149 1   
   151  146  150 1   
   152  146  151 1   
   153  152  153 1   
   154  152  161 1   
   155  153  154 1   
   156  153  156 1   
   157  153  162 1   
   158  154  155 2   
   159  154  167 1   
   160  156  157 1   
   161  156  163 1   
   162  156  164 1   
   163  157  158 1   
   164  157  165 1   
   165  157  166 1   
   166  158  159 1   
   167  158  160 1   
   168  167  168 1   
   169  167  172 1   
   170  168  169 1   
   171  168  170 1   
   172  168  171 1   
   173  174  175 1   
   174  174  176 1   
   175  177  178 1   
   176  177  179 1   
@<TRIPOS>SUBSTRUCTURE
     1 MOL         1 TEMP              0 ****  ****    0 ROOT
