@<TRIPOS>MOLECULE
MOL
  175   173     1     0     0
SMALL
resp


@<TRIPOS>ATOM
      1 C1          0.6570   -3.8890    5.6350 c3        1 MOL     -0.345757
      2 C2          1.0630   -3.4170    4.2820 c         1 MOL      0.733987
      3 O1          0.3930   -3.7830    3.3050 o         1 MOL     -0.621532
      4 H1         -0.1810   -4.5790    5.5420 hc        1 MOL      0.082025
      5 H2          1.4970   -4.3990    6.1090 hc        1 MOL      0.082025
      6 H3          0.3590   -3.0350    6.2440 hc        1 MOL      0.082025
      7 N1          2.0560   -2.6210    4.0950 n         1 MOL     -0.435125
      8 C3          2.5300   -2.0610    2.8570 c3        1 MOL      0.035594
      9 C4          3.1200   -3.1550    1.9390 c         1 MOL      0.431783
     10 O2          4.2060   -3.6480    2.1560 o         1 MOL     -0.487747
     11 C5          3.5030   -0.9700    3.2140 c3        1 MOL     -0.159689
     12 C6          4.2570   -0.3490    2.0690 c         1 MOL      0.713987
     13 O3          5.4130    0.1270    2.3440 o         1 MOL     -0.681047
     14 O4          3.6950   -0.3450    0.9320 o         1 MOL     -0.681047
     15 H4          2.3430   -2.1610    4.9390 hn        1 MOL      0.245246
     16 H5          1.6620   -1.7110    2.2980 h1        1 MOL      0.078792
     17 H6          4.2810   -1.4540    3.8020 hc        1 MOL      0.051908
     18 H7          3.0500   -0.1090    3.7070 hc        1 MOL      0.051908
     19 N2          2.3840   -3.6650    0.9320 n         1 MOL     -0.332180
     20 C7          2.6530   -4.9530    0.3650 c3        1 MOL      0.259617
     21 C8          3.7610   -4.9380   -0.7130 c         1 MOL      0.347113
     22 O5          4.5270   -5.8410   -0.7800 o         1 MOL     -0.561414
     23 C9          1.4390   -5.5780   -0.1630 c3        1 MOL     -0.329966
     24 H8          1.4600   -3.2720    0.8070 hn        1 MOL      0.272497
     25 H9          3.0180   -5.5580    1.1930 h1        1 MOL      0.039306
     26 H10         0.7480   -5.7330    0.6680 hc        1 MOL      0.089482
     27 H11         0.9450   -4.9770   -0.9290 hc        1 MOL      0.089482
     28 H12         1.5200   -6.6180   -0.4690 hc        1 MOL      0.089482
     29 N3          3.9120   -3.9240   -1.5080 n         1 MOL     -0.212211
     30 C10         5.0330   -3.8320   -2.3940 c3        1 MOL      0.190853
     31 C11         6.2770   -3.2330   -1.6850 c         1 MOL      0.340984
     32 O6          7.4220   -3.2460   -2.2190 o         1 MOL     -0.565962
     33 C12         4.7400   -2.9890   -3.6320 c3        1 MOL     -0.419632
     34 C13         3.9410   -1.6900   -3.4300 c         1 MOL      0.844683
     35 O7          3.2220   -1.2690   -4.3780 o         1 MOL     -0.723883
     36 O8          3.8390   -1.1660   -2.3210 o         1 MOL     -0.723883
     37 H13         3.2760   -3.1310   -1.4580 hn        1 MOL      0.205037
     38 H14         5.3390   -4.8010   -2.7780 h1        1 MOL      0.080278
     39 H15         4.2290   -3.6100   -4.3550 hc        1 MOL      0.096976
     40 H16         5.7000   -2.6850   -4.0540 hc        1 MOL      0.096976
     41 N4          6.1350   -2.6870   -0.4630 n         1 MOL      0.117766
     42 C14         7.1890   -1.9530    0.2270 c3        1 MOL     -0.363098
     43 C15         7.5380   -0.5500   -0.2570 c         1 MOL      0.616875
     44 O9          8.5290   -0.0040    0.2480 o         1 MOL     -0.594205
     45 H17         5.1930   -2.6890   -0.0980 hn        1 MOL     -0.113412
     46 H18         8.0860   -2.5680    0.3510 h1        1 MOL      0.156911
     47 H19         6.7210   -1.8760    1.2060 h1        1 MOL      0.156911
     48 N5          6.6630    0.0660   -1.0050 n         1 MOL     -0.350395
     49 C16         6.8260    1.4270   -1.5300 c3        1 MOL      0.057462
     50 C17         6.6160    2.5980   -0.6090 c         1 MOL      0.367151
     51 O10         6.8250    3.7690   -1.0020 o         1 MOL     -0.568464
     52 C18         6.0220    1.5620   -2.8110 c3        1 MOL     -0.205455
     53 C19         4.5050    1.8500   -2.6480 c         1 MOL      0.659112
     54 N6          3.8680    1.9680   -3.8150 n         1 MOL     -0.781602
     55 O11         3.9480    2.0250   -1.5640 o         1 MOL     -0.448472
     56 H20         5.9230   -0.5040   -1.3720 hn        1 MOL      0.207647
     57 H21         7.8880    1.4510   -1.7930 h1        1 MOL      0.086904
     58 H22         6.1290    0.6900   -3.4580 hc        1 MOL      0.069022
     59 H23         6.5400    2.3990   -3.2830 hc        1 MOL      0.069022
     60 H24         4.3380    1.5220   -4.5910 hn        1 MOL      0.352122
     61 H25         2.8700    2.0880   -3.8470 hn        1 MOL      0.352122
     62 N7          6.1820    2.3640    0.6110 n         1 MOL      0.005593
     63 C20         6.2510    3.3370    1.7610 c3        1 MOL     -0.343643
     64 C21         4.9350    4.0890    1.9920 c         1 MOL      0.556422
     65 O12         4.8270    4.8870    2.9340 o         1 MOL     -0.579192
     66 H26         5.8940    1.4100    0.7680 hn        1 MOL      0.147566
     67 H27         7.0470    4.0780    1.6920 h1        1 MOL      0.159876
     68 H28         6.4110    2.7520    2.6770 h1        1 MOL      0.159876
     69 N8          3.9450    3.9690    1.0780 n         1 MOL     -0.083450
     70 C22         2.5540    4.3690    1.3880 c3        1 MOL     -0.144424
     71 C23         1.4700    3.3040    1.4550 c         1 MOL      0.686576
     72 O13         1.6900    2.1680    1.0540 o         1 MOL     -0.602049
     73 C24         2.0730    5.4170    0.3860 c3        1 MOL      0.438687
     74 C25         2.7700    6.7070    0.3400 c3        1 MOL     -0.477777
     75 O14         2.2870    4.8900   -0.8750 oh        1 MOL     -0.603471
     76 H29         4.0400    3.3780    0.2620 hn        1 MOL      0.017761
     77 H30         2.5230    4.8860    2.3450 h1        1 MOL      0.060533
     78 H31         1.0010    5.6430    0.4470 h1        1 MOL      0.012008
     79 H32         2.7310    5.6190   -1.3160 ho        1 MOL      0.384336
     80 H33         2.1190    7.4110   -0.1840 hc        1 MOL      0.114701
     81 H34         2.9260    7.0360    1.3630 hc        1 MOL      0.114701
     82 H35         3.7490    6.4940   -0.0940 hc        1 MOL      0.114701
     83 N9          0.2480    3.6700    1.9020 n         1 MOL     -0.662743
     84 C26        -0.9800    2.7950    1.8250 c3        1 MOL     -0.164700
     85 C27        -1.6490    3.1590    0.5080 c         1 MOL      0.824356
     86 O15        -1.8840    4.2890    0.2560 o         1 MOL     -0.605367
     87 C28        -1.8660    3.0320    3.0780 c3        1 MOL      0.223788
     88 C29        -1.0480    2.7220    4.3180 c3        1 MOL      0.007622
     89 C30        -3.1500    2.2250    2.9770 c3        1 MOL     -0.177827
     90 C31        -1.9660    2.7330    5.5610 c3        1 MOL     -0.301426
     91 H36         0.2800    4.5890    2.3120 hn        1 MOL      0.309204
     92 H37        -0.6830    1.7490    1.7420 h1        1 MOL      0.196143
     93 H38        -2.2060    4.0630    3.1170 hc        1 MOL     -0.003511
     94 H39        -0.3150    3.5170    4.4710 hc        1 MOL      0.030604
     95 H40        -0.6440    1.7140    4.2830 hc        1 MOL      0.030604
     96 H41        -3.6500    2.3500    2.0160 hc        1 MOL      0.023455
     97 H42        -2.8670    1.1730    3.0880 hc        1 MOL      0.023455
     98 H43        -3.9940    2.4930    3.6140 hc        1 MOL      0.023455
     99 H44        -2.4760    1.7760    5.5300 hc        1 MOL      0.067987
    100 H45        -1.3200    2.7470    6.4460 hc        1 MOL      0.067987
    101 H46        -2.7100    3.5290    5.4750 hc        1 MOL      0.067987
    102 N10        -2.0650    2.0620   -0.2300 n         1 MOL     -0.713041
    103 C32        -3.0500    2.0840   -1.3140 c3        1 MOL      0.473654
    104 C33        -4.3350    1.3340   -0.8120 c         1 MOL      0.216104
    105 O16        -4.3080    0.4880    0.0410 o         1 MOL     -0.194858
    106 C34        -2.4900    1.7510   -2.6670 c3        1 MOL     -0.209363
    107 C35        -3.3110    2.1300   -3.8700 c         1 MOL      0.738274
    108 O17        -4.3790    2.7610   -3.8040 o         1 MOL     -0.717720
    109 O18        -2.7970    1.9680   -4.9780 o         1 MOL     -0.717720
    110 H47        -1.7540    1.1820    0.1610 hn        1 MOL      0.312602
    111 H48        -3.3460    3.1280   -1.3610 h1        1 MOL     -0.021289
    112 H49        -2.3100    0.6820   -2.7490 hc        1 MOL      0.018433
    113 H50        -1.4760    2.1330   -2.8020 hc        1 MOL      0.018433
    114 N11        -5.4890    1.5020   -1.4780 n         1 MOL     -0.480252
    115 C36        -6.8160    1.0210   -1.0430 c3        1 MOL      0.324026
    116 C37        -6.9150   -0.4860   -0.7100 c         1 MOL      0.269662
    117 O19        -7.4600   -0.8370    0.3450 o         1 MOL     -0.484861
    118 C38        -7.9930    1.4050   -1.9610 c3        1 MOL     -0.244078
    119 C39        -9.2950    1.0410   -1.2480 ca        1 MOL      0.201379
    120 C40        -9.7090    1.9220   -0.2290 ca        1 MOL     -0.296078
    121 C41       -10.0700   -0.0240   -1.6910 ca        1 MOL     -0.296078
    122 C42       -10.9220    1.6070    0.4040 ca        1 MOL      0.072928
    123 C43       -11.2770   -0.2620   -1.0700 ca        1 MOL      0.072928
    124 C44       -11.7690    0.5830   -0.0630 ca        1 MOL     -0.315071
    125 H51        -5.5760    1.9540   -2.3770 hn        1 MOL      0.236514
    126 H52        -7.0900    1.6520   -0.1920 h1        1 MOL      0.035699
    127 H53        -7.9230    0.9350   -2.9440 hc        1 MOL      0.086829
    128 H54        -7.9450    2.4880   -2.0530 hc        1 MOL      0.086829
    129 H55        -9.0960    2.7700    0.0480 ha        1 MOL      0.150210
    130 H56        -9.7750   -0.7220   -2.4590 ha        1 MOL      0.150210
    131 H57       -11.2660    2.2910    1.1570 ha        1 MOL      0.059495
    132 H58       -11.9560   -1.0230   -1.4170 ha        1 MOL      0.059495
    133 H59       -12.6920    0.3650    0.4530 ha        1 MOL      0.142176
    134 N12        -6.3660   -1.4260   -1.5330 n         1 MOL     -0.115247
    135 C45        -6.4280   -2.8280   -1.1940 c3        1 MOL     -0.025573
    136 C46        -5.5450   -3.1970    0.0200 c         1 MOL      0.352689
    137 O20        -5.7510   -4.2200    0.6180 o         1 MOL     -0.500353
    138 C47        -5.9240   -3.4760   -2.4750 c3        1 MOL     -0.222813
    139 C48        -4.9460   -2.4080   -3.0840 c3        1 MOL     -0.021421
    140 C49        -5.6880   -1.2250   -2.8540 c3        1 MOL      0.067252
    141 H60        -7.4510   -3.1900   -1.1060 h1        1 MOL      0.104219
    142 H61        -5.4500   -4.4300   -2.2700 hc        1 MOL      0.084169
    143 H62        -6.7050   -3.5340   -3.2310 hc        1 MOL      0.084169
    144 H63        -3.9650   -2.3830   -2.6260 hc        1 MOL      0.029522
    145 H64        -4.8510   -2.5410   -4.1610 hc        1 MOL      0.029522
    146 H65        -4.9550   -0.4270   -2.9110 h1        1 MOL      0.023091
    147 H66        -6.3900   -1.0370   -3.6640 h1        1 MOL      0.023091
    148 N13        -4.5640   -2.3460    0.4050 n         1 MOL     -0.123241
    149 C50        -3.7240   -2.4090    1.6080 c3        1 MOL     -0.117221
    150 C51        -4.4680   -1.8300    2.8040 c         1 MOL      0.423698
    151 O21        -4.4580   -2.4430    3.8590 o         1 MOL     -0.570421
    152 C52        -2.3620   -1.7590    1.4260 c3        1 MOL      0.299924
    153 C53        -1.6820   -2.1780    0.1400 c3        1 MOL     -0.373841
    154 C54        -0.3600   -1.3510   -0.0790 c         1 MOL      0.800097
    155 O22        -0.1220   -0.2180    0.4480 o         1 MOL     -0.809443
    156 O23         0.5720   -1.9350   -0.7250 o         1 MOL     -0.809443
    157 H67        -4.4690   -1.4670   -0.0800 hn        1 MOL      0.148467
    158 H68        -3.5870   -3.4850    1.7500 h1        1 MOL      0.101741
    159 H69        -1.7450   -2.0760    2.2730 hc        1 MOL     -0.052222
    160 H70        -2.5190   -0.6870    1.3890 hc        1 MOL     -0.052222
    161 H71        -2.2880   -1.9310   -0.7220 hc        1 MOL      0.088342
    162 H72        -1.4950   -3.2460    0.2620 hc        1 MOL      0.088342
    163 N14        -5.3730   -0.9050    2.5810 n         1 MOL      0.017560
    164 C55        -6.3340   -0.4340    3.5480 c3        1 MOL     -0.179074
    165 H73        -6.5330   -1.2230    4.2740 h1        1 MOL      0.067420
    166 H74        -5.9350    0.4400    4.0620 h1        1 MOL      0.067420
    167 H75        -7.2600   -0.1670    3.0390 h1        1 MOL      0.067420
    168 H76        -5.2660   -0.3880    1.7300 hn        1 MOL      0.028059
    169 Ca1         2.0550    0.1900   -0.8940 Ca        1 MOL      1.674106
    170 O24         1.2490   -0.0650   -3.4670 oh        1 MOL     -0.773851
    171 H77         1.9080   -0.4960   -4.0050 ho        1 MOL      0.374786
    172 H78         0.4860    0.0190   -4.0350 ho        1 MOL      0.374786
    173 O25         1.2150    2.2800   -1.9190 oh        1 MOL     -0.773851
    174 H79         1.4940    3.1170   -1.5550 ho        1 MOL      0.374786
    175 H80         1.0530    2.4700   -2.8480 ho        1 MOL      0.374786
@<TRIPOS>BOND
     1    1    2 1   
     2    1    4 1   
     3    1    5 1   
     4    1    6 1   
     5    2    3 2   
     6    2    7 1   
     7    7    8 1   
     8    7   15 1   
     9    8    9 1   
    10    8   11 1   
    11    8   16 1   
    12    9   10 2   
    13    9   19 1   
    14   11   12 1   
    15   11   17 1   
    16   11   18 1   
    17   12   13 1   
    18   12   14 1   
    19   19   20 1   
    20   19   24 1   
    21   20   21 1   
    22   20   23 1   
    23   20   25 1   
    24   21   22 2   
    25   21   29 1   
    26   23   26 1   
    27   23   27 1   
    28   23   28 1   
    29   29   30 1   
    30   29   37 1   
    31   30   31 1   
    32   30   33 1   
    33   30   38 1   
    34   31   32 2   
    35   31   41 1   
    36   33   34 1   
    37   33   39 1   
    38   33   40 1   
    39   34   35 1   
    40   34   36 1   
    41   41   42 1   
    42   41   45 1   
    43   42   43 1   
    44   42   46 1   
    45   42   47 1   
    46   43   44 2   
    47   43   48 1   
    48   48   49 1   
    49   48   56 1   
    50   49   50 1   
    51   49   52 1   
    52   49   57 1   
    53   50   51 2   
    54   50   62 1   
    55   52   53 1   
    56   52   58 1   
    57   52   59 1   
    58   53   54 1   
    59   53   55 2   
    60   54   60 1   
    61   54   61 1   
    62   62   63 1   
    63   62   66 1   
    64   63   64 1   
    65   63   67 1   
    66   63   68 1   
    67   64   65 2   
    68   64   69 1   
    69   69   70 1   
    70   69   76 1   
    71   70   71 1   
    72   70   73 1   
    73   70   77 1   
    74   71   72 2   
    75   71   83 1   
    76   73   74 1   
    77   73   75 1   
    78   73   78 1   
    79   74   80 1   
    80   74   81 1   
    81   74   82 1   
    82   75   79 1   
    83   83   84 1   
    84   83   91 1   
    85   84   85 1   
    86   84   87 1   
    87   84   92 1   
    88   85   86 2   
    89   85  102 1   
    90   87   88 1   
    91   87   89 1   
    92   87   93 1   
    93   88   90 1   
    94   88   94 1   
    95   88   95 1   
    96   89   96 1   
    97   89   97 1   
    98   89   98 1   
    99   90   99 1   
   100   90  100 1   
   101   90  101 1   
   102  102  103 1   
   103  102  110 1   
   104  103  104 1   
   105  103  106 1   
   106  103  111 1   
   107  104  105 2   
   108  104  114 1   
   109  106  107 1   
   110  106  112 1   
   111  106  113 1   
   112  107  108 1   
   113  107  109 1   
   114  114  115 1   
   115  114  125 1   
   116  115  116 1   
   117  115  118 1   
   118  115  126 1   
   119  116  117 2   
   120  116  134 1   
   121  118  119 1   
   122  118  127 1   
   123  118  128 1   
   124  119  120 ar  
   125  119  121 ar  
   126  120  122 ar  
   127  120  129 1   
   128  121  123 ar  
   129  121  130 1   
   130  122  124 ar  
   131  122  131 1   
   132  123  124 ar  
   133  123  132 1   
   134  124  133 1   
   135  134  135 1   
   136  134  140 1   
   137  135  136 1   
   138  135  138 1   
   139  135  141 1   
   140  136  137 2   
   141  136  148 1   
   142  138  139 1   
   143  138  142 1   
   144  138  143 1   
   145  139  140 1   
   146  139  144 1   
   147  139  145 1   
   148  140  146 1   
   149  140  147 1   
   150  148  149 1   
   151  148  157 1   
   152  149  150 1   
   153  149  152 1   
   154  149  158 1   
   155  150  151 2   
   156  150  163 1   
   157  152  153 1   
   158  152  159 1   
   159  152  160 1   
   160  153  154 1   
   161  153  161 1   
   162  153  162 1   
   163  154  155 1   
   164  154  156 1   
   165  163  164 1   
   166  163  168 1   
   167  164  165 1   
   168  164  166 1   
   169  164  167 1   
   170  170  171 1   
   171  170  172 1   
   172  173  174 1   
   173  173  175 1   
@<TRIPOS>SUBSTRUCTURE
     1 MOL         1 TEMP              0 ****  ****    0 ROOT
