@<TRIPOS>MOLECULE
MOL
  179   176     1     0     0
SMALL
resp


@<TRIPOS>ATOM
      1 C1          1.6690   -3.6210    6.8760 c3        1 MOL     -0.357402
      2 C2          1.0410   -3.4140    5.4820 c         1 MOL      0.738849
      3 O1         -0.0550   -3.8280    5.2340 o         1 MOL     -0.565224
      4 H1          0.9230   -4.0390    7.5510 hc        1 MOL      0.091313
      5 H2          2.5120   -4.3080    6.7970 hc        1 MOL      0.091313
      6 H3          2.0160   -2.6640    7.2650 hc        1 MOL      0.091313
      7 N1          1.7160   -2.6860    4.5890 n         1 MOL     -0.632303
      8 C3          1.2630   -2.3140    3.2870 c3        1 MOL      0.027485
      9 C4          1.0420   -3.6260    2.4190 c         1 MOL      0.634927
     10 O2          1.8050   -4.5980    2.6350 o         1 MOL     -0.513984
     11 C5          2.3700   -1.4810    2.6400 c3        1 MOL      0.071820
     12 C6          1.9590   -1.0350    1.2620 c         1 MOL      0.555831
     13 O3          0.7300   -0.9770    0.9570 o         1 MOL     -0.693508
     14 O4          2.8260   -0.6700    0.4280 o         1 MOL     -0.693508
     15 H4          2.6670   -2.4020    4.7940 hn        1 MOL      0.309560
     16 H5          0.3480   -1.7200    3.3280 h1        1 MOL      0.066909
     17 H6          3.2680   -2.0610    2.4150 hc        1 MOL     -0.018747
     18 H7          2.5980   -0.5760    3.2090 hc        1 MOL     -0.018747
     19 N2          0.0400   -3.5630    1.5460 n         1 MOL     -0.429484
     20 C7         -0.3590   -4.7300    0.7660 c3        1 MOL     -0.054665
     21 C8          0.7850   -5.4860    0.1350 c         1 MOL      0.469548
     22 O5          0.8650   -6.7080    0.1580 o         1 MOL     -0.548813
     23 C9         -1.4510   -4.2820   -0.2250 c3        1 MOL      0.091999
     24 C10        -2.1360   -5.5460   -0.7400 c3        1 MOL     -0.015502
     25 C11        -3.0520   -5.2490   -1.9640 c3        1 MOL     -0.006389
     26 C12        -3.6430   -6.5540   -2.4630 c3        1 MOL     -0.036600
     27 N3         -2.5800   -7.3400   -3.2100 n4        1 MOL     -0.452965
     28 H8         -0.3960   -2.6530    1.4360 hn        1 MOL      0.237107
     29 H9         -0.7170   -5.4340    1.5150 h1        1 MOL      0.106849
     30 H10        -0.9580   -3.8240   -1.0780 hc        1 MOL      0.017036
     31 H11        -2.1520   -3.5320    0.1480 hc        1 MOL      0.017036
     32 H12        -2.6690   -5.9230    0.1370 hc        1 MOL     -0.004050
     33 H13        -1.4130   -6.3060   -1.0300 hc        1 MOL     -0.004050
     34 H14        -2.4130   -4.7200   -2.6750 hc        1 MOL      0.049736
     35 H15        -3.8760   -4.6380   -1.6160 hc        1 MOL      0.049736
     36 H16        -4.4490   -6.3350   -3.1600 hx        1 MOL      0.115207
     37 H17        -3.9790   -7.1990   -1.6610 hx        1 MOL      0.115207
     38 H18        -2.0120   -7.8420   -2.5440 hn        1 MOL      0.355136
     39 H19        -3.0820   -8.0170   -3.7650 hn        1 MOL      0.355136
     40 H20        -1.9330   -6.6970   -3.6640 hn        1 MOL      0.355136
     41 N4          1.7430   -4.6820   -0.3870 n         1 MOL     -0.203102
     42 C13         2.7880   -5.1320   -1.2800 c3        1 MOL      0.086068
     43 C14         4.2580   -4.7050   -0.8280 c         1 MOL      0.410533
     44 O6          5.2610   -5.1980   -1.3230 o         1 MOL     -0.519712
     45 C15         2.4400   -4.6900   -2.7480 c3        1 MOL     -0.355483
     46 C16         2.3560   -3.1720   -3.0200 c         1 MOL      0.816159
     47 O7          2.0610   -2.8010   -4.1510 o         1 MOL     -0.697936
     48 O8          2.3830   -2.3820   -2.0340 o         1 MOL     -0.697936
     49 H21         1.4680   -3.7110   -0.3940 hn        1 MOL      0.162372
     50 H22         2.8390   -6.2140   -1.3440 h1        1 MOL      0.075343
     51 H23         1.4670   -5.0880   -3.0520 hc        1 MOL      0.082993
     52 H24         3.1760   -5.1870   -3.3720 hc        1 MOL      0.082993
     53 N5          4.2440   -3.7400    0.0700 n         1 MOL     -0.058729
     54 C17         5.4440   -3.3870    0.8770 c3        1 MOL     -0.197275
     55 C18         6.2540   -2.2250    0.2430 c         1 MOL      0.574736
     56 O9          7.3740   -2.1280    0.5110 o         1 MOL     -0.542664
     57 H25         3.3750   -3.2800    0.2630 hn        1 MOL     -0.047793
     58 H26         5.9140   -4.3250    1.1600 h1        1 MOL      0.116682
     59 H27         5.0750   -2.8980    1.7810 h1        1 MOL      0.116682
     60 N6          5.6360   -1.5220   -0.7150 n         1 MOL     -0.310996
     61 C19         6.3780   -0.2700   -1.2570 c3        1 MOL     -0.000777
     62 C20         6.3850    0.9180   -0.3340 c         1 MOL      0.324568
     63 O10         7.1270    1.9010   -0.5290 o         1 MOL     -0.490591
     64 C21         5.8350    0.0120   -2.6780 c3        1 MOL     -0.152100
     65 C22         4.5980    0.8680   -2.7440 c         1 MOL      0.478682
     66 N7          4.5240    1.8520   -3.5740 n         1 MOL     -0.649861
     67 O11         3.6710    0.7820   -1.9560 o         1 MOL     -0.459393
     68 H28         4.6760   -1.7270   -0.9340 hn        1 MOL      0.212805
     69 H29         7.4160   -0.5300   -1.4310 h1        1 MOL      0.128787
     70 H30         5.5600   -0.9370   -3.1530 hc        1 MOL      0.074267
     71 H31         6.5790    0.5690   -3.2400 hc        1 MOL      0.074267
     72 H32         5.2770    1.9790   -4.2360 hn        1 MOL      0.336512
     73 H33         3.6700    2.3930   -3.5830 hn        1 MOL      0.336512
     74 N8          5.6860    0.8590    0.7690 n         1 MOL     -0.008252
     75 C23         5.6660    1.8030    1.8720 c3        1 MOL     -0.309848
     76 C24         4.6040    2.8440    1.7150 c         1 MOL      0.687870
     77 O12         4.7440    3.9330    2.2880 o         1 MOL     -0.564530
     78 H34         5.1720   -0.0060    0.8570 hn        1 MOL      0.147332
     79 H35         6.6550    2.2100    2.0970 h1        1 MOL      0.129302
     80 H36         5.4810    1.2330    2.7800 h1        1 MOL      0.129302
     81 N9          3.4840    2.6290    1.0150 n         1 MOL     -0.534222
     82 C25         2.3890    3.5540    0.7880 c3        1 MOL      0.161740
     83 C26         1.1080    2.7540    0.7180 c         1 MOL      0.430451
     84 O13         0.8890    1.8240   -0.0370 o         1 MOL     -0.482840
     85 C27         2.5960    4.4030   -0.5010 c3        1 MOL     -0.004539
     86 C28         3.6990    5.5030   -0.4590 ca        1 MOL     -0.198194
     87 C29         4.8990    5.2560   -1.1370 ca        1 MOL      0.032353
     88 C30         3.5080    6.7010    0.2470 ca        1 MOL      0.032353
     89 C31         5.8940    6.2650   -1.1760 ca        1 MOL     -0.412328
     90 C32         4.4930    7.7380    0.1840 ca        1 MOL     -0.412328
     91 C33         5.7270    7.4630   -0.4500 ca        1 MOL      0.509508
     92 O14         6.6500    8.3990   -0.5570 oh        1 MOL     -0.498847
     93 H37         3.5390    1.8250    0.4110 hn        1 MOL      0.292594
     94 H38         2.3500    4.2390    1.6360 h1        1 MOL      0.056336
     95 H39         1.6700    4.9250   -0.7110 hc        1 MOL      0.030072
     96 H40         2.6480    3.7510   -1.3800 hc        1 MOL      0.030072
     97 H41         5.0750    4.3300   -1.6700 ha        1 MOL      0.092248
     98 H42         2.5510    6.8310    0.7450 ha        1 MOL      0.092248
     99 H43         6.7580    6.0920   -1.8140 ha        1 MOL      0.168793
    100 H44         4.3880    8.7620    0.5080 ha        1 MOL      0.168793
    101 H45         6.4610    9.1170    0.0470 ho        1 MOL      0.356829
    102 N10         0.1600    3.0820    1.5970 n         1 MOL     -0.511313
    103 C34        -1.1730    2.5020    1.6350 c3        1 MOL      0.132155
    104 C35        -2.2240    3.4990    0.9580 c         1 MOL      0.483903
    105 O15        -2.5720    4.4450    1.6190 o         1 MOL     -0.529086
    106 C36        -1.5670    2.2100    3.0880 c3        1 MOL      0.045502
    107 C37        -0.4940    1.2750    3.6090 c3        1 MOL      0.157706
    108 C38        -2.8980    1.4840    3.2420 c3        1 MOL     -0.174897
    109 C39        -0.6240    0.9440    5.0760 c3        1 MOL     -0.269580
    110 H46         0.2720    3.8110    2.2930 hn        1 MOL      0.298256
    111 H47        -1.0980    1.5690    1.0700 h1        1 MOL      0.011369
    112 H48        -1.5110    3.1200    3.6830 hc        1 MOL      0.003877
    113 H49         0.4850    1.7660    3.5980 hc        1 MOL      0.009191
    114 H50        -0.3720    0.4010    2.9880 hc        1 MOL      0.009191
    115 H51        -2.8860    0.5720    2.6640 hc        1 MOL      0.039754
    116 H52        -3.1140    1.2280    4.2810 hc        1 MOL      0.039754
    117 H53        -3.7510    2.0800    2.9050 hc        1 MOL      0.039754
    118 H54        -0.9180    1.7700    5.7270 hc        1 MOL      0.059949
    119 H55        -1.3690    0.1640    5.2650 hc        1 MOL      0.059949
    120 H56         0.3540    0.6750    5.4510 hc        1 MOL      0.059949
    121 N11        -2.7180    3.2660   -0.2510 n         1 MOL     -0.343523
    122 C40        -3.9840    3.8400   -0.7340 c3        1 MOL      0.059726
    123 C41        -5.2390    3.3610    0.0230 c         1 MOL      0.354750
    124 O16        -5.1230    2.5720    0.9380 o         1 MOL     -0.304556
    125 C42        -4.0870    3.6260   -2.2570 c3        1 MOL     -0.208198
    126 O17        -4.5640    2.3580   -2.4180 oh        1 MOL     -0.436722
    127 H57        -2.2650    2.5820   -0.8350 hn        1 MOL      0.250704
    128 H58        -3.9340    4.9120   -0.5330 h1        1 MOL      0.075917
    129 H59        -3.1370    3.8170   -2.7610 h1        1 MOL      0.108483
    130 H60        -4.8870    4.2150   -2.7070 h1        1 MOL      0.108483
    131 H61        -4.8850    2.4140   -3.3250 ho        1 MOL      0.402185
    132 N12        -6.4300    3.9300   -0.3060 n         1 MOL     -0.369471
    133 C43        -7.6950    3.5860    0.3540 c3        1 MOL      0.122777
    134 C44        -8.1230    2.2330   -0.0850 c         1 MOL      0.497119
    135 O18        -8.7910    1.5260    0.6030 o         1 MOL     -0.522613
    136 C45        -8.6060    4.7410   -0.0650 c3        1 MOL     -0.434407
    137 H62        -6.4520    4.7420   -0.8970 hn        1 MOL      0.264978
    138 H63        -7.6120    3.6340    1.4450 h1        1 MOL      0.097560
    139 H64        -9.5710    4.6110    0.4220 hc        1 MOL      0.131946
    140 H65        -8.2130    5.6320    0.4210 hc        1 MOL      0.131946
    141 H66        -8.6090    4.7630   -1.1480 hc        1 MOL      0.131946
    142 N13        -7.8700    1.8170   -1.3490 n         1 MOL     -0.377192
    143 C46        -8.1230    0.4370   -1.8750 c3        1 MOL      0.086040
    144 C47        -7.2310   -0.6660   -1.2300 c         1 MOL      0.286784
    145 O19        -7.7830   -1.7590   -0.9080 o         1 MOL     -0.491589
    146 C48        -7.8690    0.4280   -3.3680 c3        1 MOL     -0.301103
    147 H67        -7.3530    2.5530   -1.8140 hn        1 MOL      0.217171
    148 H68        -9.1850    0.2730   -1.7130 h1        1 MOL      0.120286
    149 H69        -8.0290   -0.5890   -3.7030 hc        1 MOL      0.083881
    150 H70        -8.5830    1.0670   -3.8930 hc        1 MOL      0.083881
    151 H71        -6.8250    0.6960   -3.5540 hc        1 MOL      0.083881
    152 N14        -6.0120   -0.2920   -0.9020 n         1 MOL      0.008556
    153 C49        -5.1020   -1.1280   -0.1080 c3        1 MOL     -0.297544
    154 C50        -5.5970   -1.1300    1.3680 c         1 MOL      0.471321
    155 O20        -5.6780   -2.2100    1.9740 o         1 MOL     -0.546717
    156 C51        -3.7160   -0.5950   -0.2800 c3        1 MOL     -0.093767
    157 C52        -3.2140   -0.9160   -1.7370 c3        1 MOL      0.283405
    158 C53        -1.7260   -0.5340   -1.9420 c         1 MOL      0.500976
    159 O21        -1.3450    0.6950   -1.8830 o         1 MOL     -0.637772
    160 O22        -0.9130   -1.3620   -2.3070 o         1 MOL     -0.637772
    161 H72        -5.6930    0.6270   -1.1560 hn        1 MOL      0.140094
    162 H73        -5.1290   -2.1590   -0.4760 h1        1 MOL      0.164736
    163 H74        -3.0080   -1.1130    0.3610 hc        1 MOL      0.062193
    164 H75        -3.5310    0.4190    0.0890 hc        1 MOL      0.062193
    165 H76        -3.8050   -0.3460   -2.4540 hc        1 MOL     -0.116283
    166 H77        -3.2720   -1.9830   -1.9570 hc        1 MOL     -0.116283
    167 N15        -6.1640   -0.0450    1.9030 n         1 MOL      0.074660
    168 C54        -6.6660   -0.0230    3.2540 c3        1 MOL     -0.280110
    169 H78        -7.6990   -0.3700    3.2630 h1        1 MOL      0.100162
    170 H79        -6.0580   -0.6780    3.8790 h1        1 MOL      0.100162
    171 H80        -6.6210    0.9940    3.6420 h1        1 MOL      0.100162
    172 H81        -6.1750    0.8590    1.4420 hn        1 MOL      0.011402
    173 Ca1         1.2670   -0.1660   -1.5910 Ca        1 MOL      1.691737
    174 O23         1.8850   -0.3480   -4.2240 oh        1 MOL     -0.892617
    175 H82         2.2590    0.0980   -4.9780 ho        1 MOL      0.416535
    176 H83         2.0590   -1.2750   -4.3680 ho        1 MOL      0.416535
    177 O24         1.2760    2.2640   -3.1990 oh        1 MOL     -0.892617
    178 H84         0.5970    2.8430   -2.8580 ho        1 MOL      0.416535
    179 H85         1.5490    2.6660   -4.0200 ho        1 MOL      0.416535
@<TRIPOS>BOND
     1    1    2 1   
     2    1    4 1   
     3    1    5 1   
     4    1    6 1   
     5    2    3 2   
     6    2    7 1   
     7    7    8 1   
     8    7   15 1   
     9    8    9 1   
    10    8   11 1   
    11    8   16 1   
    12    9   10 2   
    13    9   19 1   
    14   11   12 1   
    15   11   17 1   
    16   11   18 1   
    17   12   13 1   
    18   12   14 1   
    19   19   20 1   
    20   19   28 1   
    21   20   21 1   
    22   20   23 1   
    23   20   29 1   
    24   21   22 2   
    25   21   41 1   
    26   23   24 1   
    27   23   30 1   
    28   23   31 1   
    29   24   25 1   
    30   24   32 1   
    31   24   33 1   
    32   25   26 1   
    33   25   34 1   
    34   25   35 1   
    35   26   27 1   
    36   26   36 1   
    37   26   37 1   
    38   27   38 1   
    39   27   39 1   
    40   27   40 1   
    41   41   42 1   
    42   41   49 1   
    43   42   43 1   
    44   42   45 1   
    45   42   50 1   
    46   43   44 2   
    47   43   53 1   
    48   45   46 1   
    49   45   51 1   
    50   45   52 1   
    51   46   47 1   
    52   46   48 1   
    53   53   54 1   
    54   53   57 1   
    55   54   55 1   
    56   54   58 1   
    57   54   59 1   
    58   55   56 2   
    59   55   60 1   
    60   60   61 1   
    61   60   68 1   
    62   61   62 1   
    63   61   64 1   
    64   61   69 1   
    65   62   63 2   
    66   62   74 1   
    67   64   65 1   
    68   64   70 1   
    69   64   71 1   
    70   65   66 1   
    71   65   67 2   
    72   66   72 1   
    73   66   73 1   
    74   74   75 1   
    75   74   78 1   
    76   75   76 1   
    77   75   79 1   
    78   75   80 1   
    79   76   77 2   
    80   76   81 1   
    81   81   82 1   
    82   81   93 1   
    83   82   83 1   
    84   82   85 1   
    85   82   94 1   
    86   83   84 2   
    87   83  102 1   
    88   85   86 1   
    89   85   95 1   
    90   85   96 1   
    91   86   87 ar  
    92   86   88 ar  
    93   87   89 ar  
    94   87   97 1   
    95   88   90 ar  
    96   88   98 1   
    97   89   91 ar  
    98   89   99 1   
    99   90   91 ar  
   100   90  100 1   
   101   91   92 1   
   102   92  101 1   
   103  102  103 1   
   104  102  110 1   
   105  103  104 1   
   106  103  106 1   
   107  103  111 1   
   108  104  105 2   
   109  104  121 1   
   110  106  107 1   
   111  106  108 1   
   112  106  112 1   
   113  107  109 1   
   114  107  113 1   
   115  107  114 1   
   116  108  115 1   
   117  108  116 1   
   118  108  117 1   
   119  109  118 1   
   120  109  119 1   
   121  109  120 1   
   122  121  122 1   
   123  121  127 1   
   124  122  123 1   
   125  122  125 1   
   126  122  128 1   
   127  123  124 2   
   128  123  132 1   
   129  125  126 1   
   130  125  129 1   
   131  125  130 1   
   132  126  131 1   
   133  132  133 1   
   134  132  137 1   
   135  133  134 1   
   136  133  136 1   
   137  133  138 1   
   138  134  135 2   
   139  134  142 1   
   140  136  139 1   
   141  136  140 1   
   142  136  141 1   
   143  142  143 1   
   144  142  147 1   
   145  143  144 1   
   146  143  146 1   
   147  143  148 1   
   148  144  145 2   
   149  144  152 1   
   150  146  149 1   
   151  146  150 1   
   152  146  151 1   
   153  152  153 1   
   154  152  161 1   
   155  153  154 1   
   156  153  156 1   
   157  153  162 1   
   158  154  155 2   
   159  154  167 1   
   160  156  157 1   
   161  156  163 1   
   162  156  164 1   
   163  157  158 1   
   164  157  165 1   
   165  157  166 1   
   166  158  159 1   
   167  158  160 1   
   168  167  168 1   
   169  167  172 1   
   170  168  169 1   
   171  168  170 1   
   172  168  171 1   
   173  174  175 1   
   174  174  176 1   
   175  177  178 1   
   176  177  179 1   
@<TRIPOS>SUBSTRUCTURE
     1 MOL         1 TEMP              0 ****  ****    0 ROOT
