@<TRIPOS>MOLECULE
MOL
  189   185     1     0     0
SMALL
resp


@<TRIPOS>ATOM
      1 C1          0.8080   -2.7940    6.3270 c3        1 MOL     -0.660828
      2 C2          1.2920   -2.4800    4.9380 c         1 MOL      0.774951
      3 O1          1.3780   -1.3380    4.4960 o         1 MOL     -0.590139
      4 H1          0.0510   -2.0660    6.6210 hc        1 MOL      0.171068
      5 H2          0.3740   -3.7940    6.3430 hc        1 MOL      0.171068
      6 H3          1.6450   -2.7480    7.0230 hc        1 MOL      0.171068
      7 N1          1.8130   -3.4910    4.2500 n         1 MOL     -0.599584
      8 C3          2.4800   -3.3140    2.8700 c3        1 MOL      0.008696
      9 C4          2.4510   -4.6640    2.0590 c         1 MOL      0.597058
     10 O2          2.9030   -5.7010    2.5340 o         1 MOL     -0.583303
     11 C5          3.9770   -3.0220    3.2140 c3        1 MOL     -0.203242
     12 C6          4.6390   -2.5840    1.9620 c         1 MOL      0.749006
     13 O3          5.9010   -2.5270    2.0020 o         1 MOL     -0.692243
     14 O4          3.9000   -2.1360    0.9930 o         1 MOL     -0.692243
     15 H4          1.7820   -4.4200    4.6320 hn        1 MOL      0.314350
     16 H5          2.0550   -2.5090    2.2730 h1        1 MOL      0.131297
     17 H6          4.4190   -3.9090    3.6570 hc        1 MOL      0.068157
     18 H7          4.0620   -2.1930    3.9230 hc        1 MOL      0.068157
     19 N2          2.0440   -4.6620    0.7790 n         1 MOL     -0.252468
     20 C7          1.9760   -5.7290   -0.1770 c3        1 MOL      0.047079
     21 C8          2.9100   -5.5200   -1.3370 c         1 MOL      0.553858
     22 O5          3.3940   -6.4730   -1.9380 o         1 MOL     -0.581008
     23 C9          0.4390   -5.8970   -0.5310 c3        1 MOL      0.072203
     24 C10        -0.3140   -6.5720    0.6510 c3        1 MOL     -0.014409
     25 C11         0.1780   -6.7250   -1.8640 c3        1 MOL     -0.306998
     26 C12        -1.8770   -6.1080    0.7170 c3        1 MOL     -0.253751
     27 H8          1.8480   -3.8110    0.2800 hn        1 MOL     -0.027069
     28 H9          2.3400   -6.6600    0.2450 h1        1 MOL      0.050418
     29 H10        -0.0100   -4.9360   -0.7680 hc        1 MOL      0.106888
     30 H11         0.2010   -6.2830    1.5710 hc        1 MOL      0.000231
     31 H12        -0.2730   -7.6670    0.6150 hc        1 MOL      0.000231
     32 H13        -0.8610   -6.7290   -2.2120 hc        1 MOL      0.071263
     33 H14         0.6010   -6.1970   -2.7140 hc        1 MOL      0.071263
     34 H15         0.6240   -7.7140   -1.8000 hc        1 MOL      0.071263
     35 H16        -2.4450   -6.3890   -0.1680 hc        1 MOL      0.071434
     36 H17        -2.3150   -6.5670    1.6010 hc        1 MOL      0.071434
     37 H18        -1.8260   -5.0210    0.6870 hc        1 MOL      0.071434
     38 N3          3.2520   -4.2510   -1.6610 n         1 MOL     -0.327909
     39 C13         4.0830   -3.8850   -2.7870 c3        1 MOL     -0.012479
     40 C14         5.4220   -3.0600   -2.5420 c         1 MOL      0.414399
     41 O6          6.1320   -2.9770   -3.5230 o         1 MOL     -0.554257
     42 C15         3.3520   -3.0400   -3.8650 c3        1 MOL     -0.143844
     43 C16         2.9710   -1.6000   -3.4680 c         1 MOL      0.696645
     44 O7          3.4010   -1.1370   -2.3430 o         1 MOL     -0.679871
     45 O8          2.2810   -0.9240   -4.2310 o         1 MOL     -0.679871
     46 H19         2.8670   -3.4320   -1.2310 hn        1 MOL      0.244638
     47 H20         4.4400   -4.8030   -3.2540 h1        1 MOL      0.093977
     48 H21         2.4670   -3.4870   -4.3240 hc        1 MOL      0.039091
     49 H22         4.0610   -2.9820   -4.6870 hc        1 MOL      0.039091
     50 N4          5.7840   -2.5650   -1.3520 n         1 MOL     -0.136676
     51 C17         7.0780   -1.9520   -1.0450 c3        1 MOL     -0.244321
     52 C18         7.3620   -0.5240   -1.6050 c         1 MOL      0.525385
     53 O9          8.4650   -0.0120   -1.4030 o         1 MOL     -0.634497
     54 H23         5.0800   -2.6620   -0.6370 hn        1 MOL      0.100855
     55 H24         7.8190   -2.6060   -1.4970 h1        1 MOL      0.119627
     56 H25         7.2880   -2.0600    0.0260 h1        1 MOL      0.119627
     57 N5          6.3760    0.2140   -2.0540 n         1 MOL     -0.230603
     58 C19         6.4420    1.5650   -2.6370 c3        1 MOL     -0.023766
     59 C20         6.6400    2.7820   -1.5950 c         1 MOL      0.378389
     60 O10         6.5570    3.9580   -2.0310 o         1 MOL     -0.517622
     61 C21         5.2390    1.8480   -3.5310 c3        1 MOL     -0.328004
     62 C22         3.9630    2.0280   -2.6930 c         1 MOL      0.796584
     63 O11         3.9180    1.5790   -1.5580 o         1 MOL     -0.719172
     64 O12         3.0420    2.7150   -3.2230 o         1 MOL     -0.719172
     65 H26         5.4580   -0.2190   -2.0510 hn        1 MOL      0.233324
     66 H27         7.2890    1.6260   -3.3310 h1        1 MOL      0.088402
     67 H28         5.0740    1.0250   -4.2260 hc        1 MOL      0.099602
     68 H29         5.3570    2.7870   -4.0590 hc        1 MOL      0.099602
     69 N6          6.8550    2.4470   -0.3460 n         1 MOL     -0.169604
     70 C23         7.0110    3.5090    0.7350 c3        1 MOL     -0.332595
     71 C24         5.7620    4.2280    1.1490 c         1 MOL      0.586564
     72 O13         5.9210    5.2020    1.8800 o         1 MOL     -0.587792
     73 H30         6.7850    1.4900   -0.0350 hn        1 MOL      0.242792
     74 H31         7.6450    4.3100    0.3720 h1        1 MOL      0.142497
     75 H32         7.3360    2.9930    1.6420 h1        1 MOL      0.142497
     76 N7          4.5340    3.7480    0.8660 n         1 MOL     -0.332605
     77 C25         3.2900    4.3760    1.2750 c3        1 MOL     -0.053675
     78 C26         2.1580    3.4080    1.4620 c         1 MOL      0.497222
     79 O14         2.2130    2.4170    0.7460 o         1 MOL     -0.553295
     80 C27         2.7200    5.3700    0.2030 c3        1 MOL     -0.046931
     81 C28         3.6760    6.5740    0.0020 c3        1 MOL     -0.195402
     82 C29         3.0120    7.5870   -0.8370 c         1 MOL      0.601132
     83 N8          3.1440    7.4780   -2.1160 n         1 MOL     -0.757020
     84 O15         2.3740    8.5510   -0.3990 o         1 MOL     -0.607740
     85 H33         4.4440    2.8830    0.3430 hn        1 MOL      0.293988
     86 H34         3.4250    4.9200    2.2140 h1        1 MOL      0.061682
     87 H35         1.7520    5.7010    0.5850 hc        1 MOL      0.080043
     88 H36         2.5950    4.8190   -0.7290 hc        1 MOL      0.080043
     89 H37         4.6070    6.2850   -0.4910 hc        1 MOL      0.091786
     90 H38         3.7760    6.9230    1.0340 hc        1 MOL      0.091786
     91 H39         3.6970    6.7360   -2.5300 hn        1 MOL      0.360600
     92 H40         2.5960    8.1340   -2.6590 hn        1 MOL      0.360600
     93 N9          1.2180    3.6300    2.4030 n         1 MOL     -0.440281
     94 C30        -0.0040    2.7730    2.4540 c3        1 MOL      0.012647
     95 C31        -0.9690    3.2640    1.4080 c         1 MOL      0.446348
     96 O16        -1.3920    4.4380    1.3990 o         1 MOL     -0.562915
     97 C32        -0.5770    2.8320    3.9730 c3        1 MOL      0.113195
     98 C33        -2.0680    2.4630    4.0750 c3        1 MOL     -0.362058
     99 C34         0.1280    1.7190    4.8000 c3        1 MOL     -0.362058
    100 H41         1.2190    4.4620    2.9780 hn        1 MOL      0.289586
    101 H42         0.2400    1.7540    2.1610 h1        1 MOL      0.069463
    102 H43        -0.4510    3.8420    4.3680 hc        1 MOL      0.026468
    103 H44        -2.4510    2.6520    5.0810 hc        1 MOL      0.100561
    104 H45        -2.7550    2.9680    3.3970 hc        1 MOL      0.100561
    105 H46        -2.1650    1.3890    3.8890 hc        1 MOL      0.100561
    106 H47         1.1830    1.8360    4.5350 hc        1 MOL      0.100561
    107 H48        -0.1640    1.7980    5.8520 hc        1 MOL      0.100561
    108 H49        -0.2050    0.7370    4.4790 hc        1 MOL      0.100561
    109 N10        -1.3570    2.3460    0.5130 n         1 MOL     -0.086773
    110 C35        -2.4180    2.4490   -0.3800 c3        1 MOL     -0.017541
    111 C36        -3.8640    2.2780    0.1460 c         1 MOL      0.454482
    112 O17        -4.0610    1.7880    1.2900 o         1 MOL     -0.454598
    113 C37        -1.9920    1.4400   -1.5040 c3        1 MOL      0.012007
    114 C38        -2.8630    1.4860   -2.7160 c         1 MOL      0.634281
    115 N11        -2.6170    2.4260   -3.6320 n         1 MOL     -0.800136
    116 O18        -3.7780    0.7180   -2.9710 o         1 MOL     -0.496683
    117 H50        -0.7780    1.5150    0.5130 hn        1 MOL      0.093560
    118 H51        -2.4200    3.4570   -0.7960 h1        1 MOL      0.013895
    119 H52        -1.9500    0.4070   -1.1770 hc        1 MOL      0.036518
    120 H53        -1.0150    1.7040   -1.9050 hc        1 MOL      0.036518
    121 H54        -1.8780    3.1010   -3.4700 hn        1 MOL      0.362637
    122 H55        -2.9850    2.3700   -4.5760 hn        1 MOL      0.362637
    123 N12        -4.8430    2.5120   -0.6590 n         1 MOL     -0.356214
    124 C39        -6.1970    2.1210   -0.2700 c3        1 MOL      0.102610
    125 C40        -6.3670    0.5760   -0.1340 c         1 MOL      0.535488
    126 O19        -6.9950    0.1170    0.8310 o         1 MOL     -0.537444
    127 C41        -7.1910    2.4990   -1.3810 c3        1 MOL     -0.051844
    128 C42        -8.6870    2.2060   -1.1650 ca        1 MOL     -0.101218
    129 C43        -9.4050    2.8520   -0.1520 ca        1 MOL     -0.106099
    130 C44        -9.2760    1.1790   -1.9470 ca        1 MOL     -0.106099
    131 C45       -10.7020    2.5010    0.0460 ca        1 MOL     -0.215088
    132 C46       -10.6520    0.9370   -1.8010 ca        1 MOL     -0.215088
    133 C47       -11.3240    1.5910   -0.8550 ca        1 MOL      0.367164
    134 O20       -12.6500    1.2940   -0.7240 oh        1 MOL     -0.622736
    135 H56        -4.6440    3.0140   -1.5200 hn        1 MOL      0.212368
    136 H57        -6.5250    2.6310    0.6430 h1        1 MOL      0.060734
    137 H58        -6.8600    2.0360   -2.3130 hc        1 MOL      0.037668
    138 H59        -7.1020    3.5780   -1.5090 hc        1 MOL      0.037668
    139 H60        -8.8920    3.6210    0.3930 ha        1 MOL      0.104363
    140 H61        -8.6430    0.6090   -2.6110 ha        1 MOL      0.104363
    141 H62       -11.3440    3.0310    0.7460 ha        1 MOL      0.120141
    142 H63       -11.1460    0.2770   -2.4990 ha        1 MOL      0.120141
    143 H64       -12.8560    0.4570   -1.1530 ho        1 MOL      0.427674
    144 N13        -5.6990   -0.2050   -1.0160 n         1 MOL     -0.033533
    145 C48        -5.6260   -1.6430   -1.0320 c3        1 MOL     -0.021679
    146 C49        -4.6470   -2.1440    0.0570 c         1 MOL      0.376761
    147 O21        -4.1750   -3.3010    0.0650 o         1 MOL     -0.525997
    148 C50        -5.3170   -2.2590   -2.3990 c3        1 MOL      0.065957
    149 C51        -6.3510   -1.8100   -3.4640 c3        1 MOL     -0.175171
    150 C52        -7.6870   -2.5020   -3.4320 c         1 MOL      0.640229
    151 O22        -7.8770   -3.6490   -2.9920 o         1 MOL     -0.701924
    152 O23        -8.7150   -1.8740   -3.7700 o         1 MOL     -0.701924
    153 H65        -5.1390    0.1830   -1.7570 hn        1 MOL      0.096245
    154 H66        -6.5680   -2.0630   -0.6890 h1        1 MOL      0.105414
    155 H67        -5.3290   -3.3460   -2.3550 hc        1 MOL      0.010661
    156 H68        -4.4250   -1.7320   -2.7370 hc        1 MOL      0.010661
    157 H69        -5.9070   -2.0100   -4.4430 hc        1 MOL      0.008229
    158 H70        -6.4650   -0.7250   -3.4260 hc        1 MOL      0.008229
    159 N14        -4.3000   -1.2710    1.0360 n         1 MOL     -0.095909
    160 C53        -3.5630   -1.5890    2.3040 c3        1 MOL     -0.001475
    161 C54        -4.1280   -0.9050    3.5610 c         1 MOL      0.314572
    162 O24        -3.5440   -0.9880    4.6410 o         1 MOL     -0.507473
    163 C55        -2.0450   -1.2440    2.0730 c3        1 MOL     -0.109467
    164 C56        -1.3630   -1.8870    0.8180 c3        1 MOL     -0.157871
    165 C57         0.0670   -1.3570    0.5340 c         1 MOL      0.617876
    166 O25         0.8920   -2.0990   -0.0790 o         1 MOL     -0.657498
    167 O26         0.3620   -0.1660    0.7880 o         1 MOL     -0.657498
    168 H71        -4.6520   -0.3230    1.0230 hn        1 MOL     -0.209197
    169 H72        -3.6080   -2.6670    2.4700 h1        1 MOL      0.088060
    170 H73        -1.4000   -1.4330    2.9340 hc        1 MOL      0.103642
    171 H74        -2.0150   -0.1740    1.8480 hc        1 MOL      0.103642
    172 H75        -1.9750   -1.7160   -0.0690 hc        1 MOL      0.078093
    173 H76        -1.4740   -2.9730    0.9170 hc        1 MOL      0.078093
    174 N15        -5.3120   -0.2360    3.3800 n         1 MOL     -0.124971
    175 C58        -6.0650    0.5760    4.4010 c3        1 MOL      0.007131
    176 H77        -5.4950    0.6090    5.3300 h1        1 MOL      0.029091
    177 H78        -6.2080    1.5900    4.0270 h1        1 MOL      0.029091
    178 H79        -7.0350    0.1170    4.5870 h1        1 MOL      0.029091
    179 H80        -5.7760   -0.3450    2.4930 hn        1 MOL      0.186902
    180 Ca1         2.7220    0.0150   -0.0440 Ca        1 MOL      1.692134
    181 O27         2.8820    0.2050    2.6320 oh        1 MOL     -0.828360
    182 H81         2.0510   -0.1390    2.9600 ho        1 MOL      0.403902
    183 H82         3.3430    0.5090    3.4120 ho        1 MOL      0.403902
    184 O28         1.2050    0.7490   -2.1230 oh        1 MOL     -0.828360
    185 H83         1.0440    0.0940   -2.7950 ho        1 MOL      0.403902
    186 H84         1.9860    1.2050   -2.4130 ho        1 MOL      0.403902
    187 O29         5.0990    0.4080    0.9740 oh        1 MOL     -0.828360
    188 H85         5.3040    0.7590    1.8370 ho        1 MOL      0.403902
    189 H86         5.3170   -0.5160    1.0320 ho        1 MOL      0.403902
@<TRIPOS>BOND
     1    1    2 1   
     2    1    4 1   
     3    1    5 1   
     4    1    6 1   
     5    2    3 2   
     6    2    7 1   
     7    7    8 1   
     8    7   15 1   
     9    8    9 1   
    10    8   11 1   
    11    8   16 1   
    12    9   10 2   
    13    9   19 1   
    14   11   12 1   
    15   11   17 1   
    16   11   18 1   
    17   12   13 1   
    18   12   14 1   
    19   19   20 1   
    20   19   27 1   
    21   20   21 1   
    22   20   23 1   
    23   20   28 1   
    24   21   22 2   
    25   21   38 1   
    26   23   24 1   
    27   23   25 1   
    28   23   29 1   
    29   24   26 1   
    30   24   30 1   
    31   24   31 1   
    32   25   32 1   
    33   25   33 1   
    34   25   34 1   
    35   26   35 1   
    36   26   36 1   
    37   26   37 1   
    38   38   39 1   
    39   38   46 1   
    40   39   40 1   
    41   39   42 1   
    42   39   47 1   
    43   40   41 2   
    44   40   50 1   
    45   42   43 1   
    46   42   48 1   
    47   42   49 1   
    48   43   44 1   
    49   43   45 1   
    50   50   51 1   
    51   50   54 1   
    52   51   52 1   
    53   51   55 1   
    54   51   56 1   
    55   52   53 2   
    56   52   57 1   
    57   57   58 1   
    58   57   65 1   
    59   58   59 1   
    60   58   61 1   
    61   58   66 1   
    62   59   60 2   
    63   59   69 1   
    64   61   62 1   
    65   61   67 1   
    66   61   68 1   
    67   62   63 1   
    68   62   64 1   
    69   69   70 1   
    70   69   73 1   
    71   70   71 1   
    72   70   74 1   
    73   70   75 1   
    74   71   72 2   
    75   71   76 1   
    76   76   77 1   
    77   76   85 1   
    78   77   78 1   
    79   77   80 1   
    80   77   86 1   
    81   78   79 2   
    82   78   93 1   
    83   80   81 1   
    84   80   87 1   
    85   80   88 1   
    86   81   82 1   
    87   81   89 1   
    88   81   90 1   
    89   82   83 1   
    90   82   84 2   
    91   83   91 1   
    92   83   92 1   
    93   93   94 1   
    94   93  100 1   
    95   94   95 1   
    96   94   97 1   
    97   94  101 1   
    98   95   96 2   
    99   95  109 1   
   100   97   98 1   
   101   97   99 1   
   102   97  102 1   
   103   98  103 1   
   104   98  104 1   
   105   98  105 1   
   106   99  106 1   
   107   99  107 1   
   108   99  108 1   
   109  109  110 1   
   110  109  117 1   
   111  110  111 1   
   112  110  113 1   
   113  110  118 1   
   114  111  112 2   
   115  111  123 1   
   116  113  114 1   
   117  113  119 1   
   118  113  120 1   
   119  114  115 1   
   120  114  116 2   
   121  115  121 1   
   122  115  122 1   
   123  123  124 1   
   124  123  135 1   
   125  124  125 1   
   126  124  127 1   
   127  124  136 1   
   128  125  126 2   
   129  125  144 1   
   130  127  128 1   
   131  127  137 1   
   132  127  138 1   
   133  128  129 ar  
   134  128  130 ar  
   135  129  131 ar  
   136  129  139 1   
   137  130  132 ar  
   138  130  140 1   
   139  131  133 ar  
   140  131  141 1   
   141  132  133 ar  
   142  132  142 1   
   143  133  134 1   
   144  134  143 1   
   145  144  145 1   
   146  144  153 1   
   147  145  146 1   
   148  145  148 1   
   149  145  154 1   
   150  146  147 2   
   151  146  159 1   
   152  148  149 1   
   153  148  155 1   
   154  148  156 1   
   155  149  150 1   
   156  149  157 1   
   157  149  158 1   
   158  150  151 1   
   159  150  152 1   
   160  159  160 1   
   161  159  168 1   
   162  160  161 1   
   163  160  163 1   
   164  160  169 1   
   165  161  162 2   
   166  161  174 1   
   167  163  164 1   
   168  163  170 1   
   169  163  171 1   
   170  164  165 1   
   171  164  172 1   
   172  164  173 1   
   173  165  166 1   
   174  165  167 1   
   175  174  175 1   
   176  174  179 1   
   177  175  176 1   
   178  175  177 1   
   179  175  178 1   
   180  181  182 1   
   181  181  183 1   
   182  184  185 1   
   183  184  186 1   
   184  187  188 1   
   185  187  189 1   
@<TRIPOS>SUBSTRUCTURE
     1 MOL         1 TEMP              0 ****  ****    0 ROOT
