@<TRIPOS>MOLECULE
MOL
  189   185     1     0     0
SMALL
resp


@<TRIPOS>ATOM
      1 C1         -0.3310    3.4020   -4.5290 c3        1 MOL     -0.371128
      2 C2          0.3610    2.9670   -3.2010 c         1 MOL      0.616106
      3 O1         -0.2480    3.2330   -2.1590 o         1 MOL     -0.575705
      4 H1          0.3830    3.3350   -5.3500 hc        1 MOL      0.094704
      5 H2         -1.1780    2.7440   -4.7300 hc        1 MOL      0.094704
      6 H3         -0.6830    4.4290   -4.4360 hc        1 MOL      0.094704
      7 N1          1.5540    2.3490   -3.2180 n         1 MOL     -0.579711
      8 C3          2.2260    1.8020   -2.0440 c3        1 MOL      0.272998
      9 C4          2.7800    3.0630   -1.2600 c         1 MOL      0.296633
     10 O2          3.9670    3.4220   -1.1630 o         1 MOL     -0.486393
     11 C5          3.3550    0.8800   -2.4730 c3        1 MOL     -0.100859
     12 C6          4.0190    0.2070   -1.2900 c         1 MOL      0.635695
     13 O3          3.5940    0.3060   -0.1160 o         1 MOL     -0.602215
     14 O4          5.1280   -0.3220   -1.5830 o         1 MOL     -0.602215
     15 H4          1.9010    2.0850   -4.1360 hn        1 MOL      0.322345
     16 H5          1.5540    1.1990   -1.4380 h1        1 MOL      0.043112
     17 H6          4.0940    1.3380   -3.1210 hc        1 MOL      0.024496
     18 H7          2.7980    0.1650   -3.0890 hc        1 MOL      0.024496
     19 N2          1.9590    3.8800   -0.6340 n         1 MOL     -0.143277
     20 C7          2.2650    5.1850   -0.0520 c3        1 MOL     -0.006298
     21 C8          3.1010    5.1350    1.2810 c         1 MOL      0.575742
     22 O5          3.7820    6.0770    1.5770 o         1 MOL     -0.591691
     23 C9          0.9220    6.0050    0.1360 c3        1 MOL     -0.484459
     24 C10         0.4980    6.4930   -1.2840 c3        1 MOL      0.411154
     25 C11        -0.5770    7.6320   -1.1140 c3        1 MOL     -0.127440
     26 C12        -0.8540    8.3770   -2.4210 c3        1 MOL     -0.061117
     27 N3         -1.9200    7.7770   -3.2610 n4        1 MOL     -0.262449
     28 H8          1.0010    3.5700   -0.6220 hn        1 MOL      0.279168
     29 H9          2.9420    5.7190   -0.7230 h1        1 MOL      0.076774
     30 H10         1.1230    6.8710    0.7670 hc        1 MOL      0.127001
     31 H11         0.1190    5.3570    0.4880 hc        1 MOL      0.127001
     32 H12         0.1620    5.6600   -1.9030 hc        1 MOL     -0.072121
     33 H13         1.3640    6.8130   -1.8450 hc        1 MOL     -0.072121
     34 H14        -0.1530    8.4200   -0.4930 hc        1 MOL      0.067513
     35 H15        -1.4570    7.2100   -0.6130 hc        1 MOL      0.067513
     36 H16         0.1010    8.4330   -2.9650 hx        1 MOL      0.098047
     37 H17        -1.2810    9.3560   -2.2310 hx        1 MOL      0.098047
     38 H18        -1.5270    7.0130   -3.8010 hn        1 MOL      0.303730
     39 H19        -2.7490    7.4120   -2.8160 hn        1 MOL      0.303730
     40 H20        -2.2110    8.4660   -3.9340 hn        1 MOL      0.303730
     41 N4          3.0640    4.0410    1.9850 n         1 MOL     -0.296976
     42 C13         4.0320    3.7350    3.0630 c3        1 MOL      0.122787
     43 C14         5.1620    2.7190    2.6990 c         1 MOL      0.305915
     44 O6          5.9270    2.3260    3.5600 o         1 MOL     -0.473140
     45 C15         3.2830    3.1300    4.2350 c3        1 MOL     -0.334223
     46 C16         2.5460    1.7780    3.9210 c         1 MOL      0.786689
     47 O7          2.0170    1.1700    4.8360 o         1 MOL     -0.670221
     48 O8          2.6800    1.1960    2.8340 o         1 MOL     -0.670221
     49 H21         2.4510    3.2860    1.7130 hn        1 MOL      0.173524
     50 H22         4.5580    4.6370    3.3850 h1        1 MOL      0.086656
     51 H23         2.6240    3.9500    4.5150 hc        1 MOL      0.073517
     52 H24         3.9820    2.9920    5.0660 hc        1 MOL      0.073517
     53 N5          5.3330    2.4420    1.4430 n         1 MOL      0.020939
     54 C17         6.5040    1.8630    0.8010 c3        1 MOL     -0.076123
     55 C18         7.0270    0.5840    1.3880 c         1 MOL      0.462787
     56 O9          8.0960    0.5710    2.0330 o         1 MOL     -0.566333
     57 H25         4.5870    2.7530    0.8310 hn        1 MOL      0.024034
     58 H26         7.3000    2.6120    0.8880 h1        1 MOL      0.062221
     59 H27         6.2550    1.7080   -0.2490 h1        1 MOL      0.062221
     60 N6          6.3440   -0.5040    1.2300 n         1 MOL      0.027094
     61 C19         6.8520   -1.8560    1.6190 c3        1 MOL     -0.018999
     62 C20         7.0200   -2.8010    0.4150 c         1 MOL      0.464577
     63 O10         7.5320   -3.8730    0.6390 o         1 MOL     -0.516464
     64 C21         6.0000   -2.3280    2.7040 c3        1 MOL     -0.218929
     65 C22         4.4820   -2.2550    2.4030 c         1 MOL      0.695755
     66 O11         4.0090   -2.6550    1.3230 o         1 MOL     -0.678139
     67 O12         3.7240   -1.7200    3.2350 o         1 MOL     -0.678139
     68 H28         5.6490   -0.4740    0.4920 hn        1 MOL     -0.223302
     69 H29         7.8610   -1.7170    2.0150 h1        1 MOL      0.105983
     70 H30         6.0810   -1.6540    3.5510 hc        1 MOL      0.074984
     71 H31         6.1670   -3.3810    2.9310 hc        1 MOL      0.074984
     72 N7          6.8670   -2.3910   -0.8150 n         1 MOL     -0.347540
     73 C23         6.7590   -3.2590   -1.9510 c3        1 MOL     -0.150814
     74 C24         5.4770   -4.0150   -2.0670 c         1 MOL      0.598506
     75 O13         5.4900   -5.0360   -2.7030 o         1 MOL     -0.579656
     76 H32         6.5450   -1.4690   -1.0420 hn        1 MOL      0.311429
     77 H33         7.6140   -3.9210   -1.8670 h1        1 MOL      0.096558
     78 H34         6.8330   -2.6690   -2.8780 h1        1 MOL      0.096558
     79 N8          4.3140   -3.5510   -1.5570 n         1 MOL     -0.311210
     80 C25         2.9860   -4.2390   -1.6950 c3        1 MOL     -0.193832
     81 C26         1.9060   -3.1890   -1.7110 c         1 MOL      0.690278
     82 O14         2.0510   -2.1140   -1.0620 o         1 MOL     -0.673384
     83 C27         2.6610   -5.3000   -0.6350 c3        1 MOL      0.546285
     84 C28         3.1880   -6.7250   -0.8180 c3        1 MOL     -0.385594
     85 O15         3.0730   -5.0250    0.6160 oh        1 MOL     -0.639413
     86 H35         4.3200   -2.7410   -0.9580 hn        1 MOL      0.215422
     87 H36         2.9780   -4.7410   -2.6650 h1        1 MOL      0.100892
     88 H37         1.5800   -5.4540   -0.6120 h1        1 MOL     -0.064266
     89 H38         3.3110   -4.0950    0.6310 ho        1 MOL      0.444936
     90 H39         2.7590   -7.4620   -0.1500 hc        1 MOL      0.090148
     91 H40         3.0190   -7.0220   -1.8440 hc        1 MOL      0.090148
     92 H41         4.2710   -6.7150   -0.7270 hc        1 MOL      0.090148
     93 N9          0.8480   -3.5010   -2.4470 n         1 MOL     -0.637492
     94 C29        -0.2910   -2.5590   -2.4940 c3        1 MOL      0.140591
     95 C30        -1.4100   -3.2650   -1.7410 c         1 MOL      0.433506
     96 O16        -1.7700   -4.4080   -2.1980 o         1 MOL     -0.565896
     97 C31        -0.6730   -2.2370   -3.9530 c3        1 MOL      0.137671
     98 C32         0.4210   -1.3360   -4.5350 c3        1 MOL      0.017679
     99 C33        -2.0840   -1.6460   -4.0990 c3        1 MOL     -0.317835
    100 C34         0.5000   -1.2730   -6.0990 c3        1 MOL     -0.098923
    101 H42         0.9180   -4.2260   -3.1360 hn        1 MOL      0.331952
    102 H43        -0.1400   -1.5770   -2.0370 h1        1 MOL      0.063127
    103 H44        -0.6700   -3.1720   -4.5140 hc        1 MOL      0.024444
    104 H45         1.4160   -1.6700   -4.2340 hc        1 MOL      0.008365
    105 H46         0.2700   -0.3290   -4.1720 hc        1 MOL      0.008365
    106 H47        -2.7860   -1.8250   -3.2930 hc        1 MOL      0.071477
    107 H48        -1.9750   -0.5840   -3.8590 hc        1 MOL      0.071477
    108 H49        -2.5130   -1.7950   -5.0930 hc        1 MOL      0.071477
    109 H50         0.6050   -2.2800   -6.5110 hc        1 MOL      0.019834
    110 H51        -0.4010   -0.8110   -6.5140 hc        1 MOL      0.019834
    111 H52         1.3290   -0.6670   -6.4680 hc        1 MOL      0.019834
    112 N10        -2.0460   -2.5770   -0.8150 n         1 MOL     -0.199595
    113 C35        -3.2290   -2.9510   -0.0380 c3        1 MOL     -0.173567
    114 C36        -4.4740   -2.4510   -0.7440 c         1 MOL      0.526710
    115 O17        -4.5360   -1.3840   -1.3470 o         1 MOL     -0.438891
    116 C37        -3.0890   -2.4970    1.4840 c3        1 MOL      0.272222
    117 C38        -2.0560   -3.3320    2.2700 c3        1 MOL     -0.298811
    118 O18        -2.6410   -1.1720    1.5720 oh        1 MOL     -0.543278
    119 H53        -1.7340   -1.6260   -0.7300 hn        1 MOL      0.229510
    120 H54        -3.3100   -4.0370   -0.0670 h1        1 MOL      0.119085
    121 H55        -4.0750   -2.5830    1.9370 h1        1 MOL     -0.039252
    122 H56        -1.7770   -1.1500    1.1450 ho        1 MOL      0.313174
    123 H57        -2.4440   -4.3340    2.4290 hc        1 MOL      0.092110
    124 H58        -1.1520   -3.5070    1.6870 hc        1 MOL      0.092110
    125 H59        -1.8050   -2.8590    3.2180 hc        1 MOL      0.092110
    126 N11        -5.6170   -3.1020   -0.4110 n         1 MOL     -0.347482
    127 C39        -6.9440   -2.5970   -0.6970 c3        1 MOL     -0.045400
    128 C40        -7.2240   -1.1160   -0.4100 c         1 MOL      0.241238
    129 O19        -7.7210   -0.4510   -1.3310 o         1 MOL     -0.429818
    130 C41        -8.0240   -3.3930    0.0030 c3        1 MOL      0.524868
    131 C42        -9.4380   -3.2040   -0.4930 c3        1 MOL     -0.428246
    132 O20        -7.7150   -4.7730    0.0230 oh        1 MOL     -0.619161
    133 H60        -5.5860   -4.0160    0.0240 hn        1 MOL      0.218052
    134 H61        -7.0680   -2.7460   -1.7740 h1        1 MOL      0.121984
    135 H62        -8.0940   -3.0390    1.0260 h1        1 MOL     -0.139510
    136 H63        -8.1600   -5.1870    0.7620 ho        1 MOL      0.397506
    137 H64        -9.4770   -3.2310   -1.5910 hc        1 MOL      0.114156
    138 H65       -10.1020   -4.0040   -0.1690 hc        1 MOL      0.114156
    139 H66        -9.8230   -2.2230   -0.2160 hc        1 MOL      0.114156
    140 N12        -6.9070   -0.6370    0.7800 n         1 MOL     -0.271699
    141 C43        -7.0310    0.8080    1.1380 c3        1 MOL     -0.042439
    142 C44        -6.1960    1.7360    0.2710 c         1 MOL      0.433146
    143 O21        -6.7880    2.6760   -0.2990 o         1 MOL     -0.536008
    144 C45        -6.8620    1.0170    2.6510 c3        1 MOL     -0.154290
    145 C46        -7.7410    0.0590    3.4190 c3        1 MOL      0.225103
    146 C47        -7.6080    0.3550    4.9020 c3        1 MOL     -0.269686
    147 C48        -8.7480   -0.4570    5.5970 c3        1 MOL      0.164891
    148 N13        -8.6770   -0.2380    7.0980 n4        1 MOL     -0.323316
    149 H67        -6.5280   -1.2680    1.4630 hn        1 MOL      0.282012
    150 H68        -8.0760    1.0340    0.9420 h1        1 MOL      0.112173
    151 H69        -7.2000    2.0030    2.9440 hc        1 MOL      0.069552
    152 H70        -5.8330    0.8580    2.9970 hc        1 MOL      0.069552
    153 H71        -7.4520   -0.9830    3.2850 hc        1 MOL     -0.015172
    154 H72        -8.7980    0.1440    3.1470 hc        1 MOL     -0.015172
    155 H73        -7.8150    1.4130    5.0310 hc        1 MOL      0.090921
    156 H74        -6.6330    0.0390    5.2870 hc        1 MOL      0.090921
    157 H75        -8.5740   -1.5140    5.4250 hx        1 MOL      0.050451
    158 H76        -9.7450   -0.2730    5.2010 hx        1 MOL      0.050451
    159 H77        -9.3640   -0.7950    7.5900 hn        1 MOL      0.279455
    160 H78        -7.7500   -0.4840    7.4160 hn        1 MOL      0.279455
    161 H79        -8.7540    0.7610    7.2400 hn        1 MOL      0.279455
    162 N14        -4.9220    1.4950    0.1300 n         1 MOL     -0.288128
    163 C49        -3.9480    2.1130   -0.7830 c3        1 MOL     -0.070847
    164 C50        -4.5080    2.2170   -2.3150 c         1 MOL      0.437937
    165 O22        -3.9170    3.0850   -2.9990 o         1 MOL     -0.550592
    166 C51        -2.6580    1.3070   -0.7450 c3        1 MOL     -0.081222
    167 C52        -1.8800    1.5670    0.5070 c3        1 MOL      0.008877
    168 C53        -0.5930    0.7960    0.4570 c         1 MOL      0.877562
    169 O23         0.4800    1.3680    0.5740 o         1 MOL     -0.804384
    170 O24        -0.5370   -0.4680    0.5290 o         1 MOL     -0.804384
    171 H80        -4.6040    0.6160    0.5160 hn        1 MOL      0.261061
    172 H81        -3.7030    3.1470   -0.5430 h1        1 MOL      0.119181
    173 H82        -1.9780    1.4750   -1.5680 hc        1 MOL      0.045022
    174 H83        -2.9610    0.2600   -0.7810 hc        1 MOL      0.045022
    175 H84        -2.3940    1.2730    1.4180 hc        1 MOL     -0.023243
    176 H85        -1.7170    2.6370    0.6120 hc        1 MOL     -0.023243
    177 N15        -5.5630    1.4030   -2.7140 n         1 MOL     -0.149278
    178 C54        -6.1930    1.3190   -4.0960 c3        1 MOL     -0.204699
    179 H86        -5.7910    2.1110   -4.7270 h1        1 MOL      0.097416
    180 H87        -5.9670    0.3510   -4.5410 h1        1 MOL      0.097416
    181 H88        -7.2730    1.4370   -4.0110 h1        1 MOL      0.097416
    182 H89        -5.9060    0.6610   -2.1190 hn        1 MOL      0.197978
    183 Ca1         2.0260   -0.8060    1.5090 Ca        1 MOL      1.799717
    184 O25         0.4780   -0.5960    3.8200 oh        1 MOL     -0.850702
    185 H90         0.8640    0.1200    4.3350 ho        1 MOL      0.386231
    186 H91        -0.1460   -1.0070    4.4270 ho        1 MOL      0.386231
    187 O26         1.2940   -3.4910    2.1890 oh        1 MOL     -0.850702
    188 H92         1.2110   -3.9260    3.0440 ho        1 MOL      0.386231
    189 H93         1.8330   -4.0930    1.6770 ho        1 MOL      0.386231
@<TRIPOS>BOND
     1    1    2 1   
     2    1    4 1   
     3    1    5 1   
     4    1    6 1   
     5    2    3 2   
     6    2    7 1   
     7    7    8 1   
     8    7   15 1   
     9    8    9 1   
    10    8   11 1   
    11    8   16 1   
    12    9   10 2   
    13    9   19 1   
    14   11   12 1   
    15   11   17 1   
    16   11   18 1   
    17   12   13 1   
    18   12   14 1   
    19   19   20 1   
    20   19   28 1   
    21   20   21 1   
    22   20   23 1   
    23   20   29 1   
    24   21   22 2   
    25   21   41 1   
    26   23   24 1   
    27   23   30 1   
    28   23   31 1   
    29   24   25 1   
    30   24   32 1   
    31   24   33 1   
    32   25   26 1   
    33   25   34 1   
    34   25   35 1   
    35   26   27 1   
    36   26   36 1   
    37   26   37 1   
    38   27   38 1   
    39   27   39 1   
    40   27   40 1   
    41   41   42 1   
    42   41   49 1   
    43   42   43 1   
    44   42   45 1   
    45   42   50 1   
    46   43   44 2   
    47   43   53 1   
    48   45   46 1   
    49   45   51 1   
    50   45   52 1   
    51   46   47 1   
    52   46   48 1   
    53   53   54 1   
    54   53   57 1   
    55   54   55 1   
    56   54   58 1   
    57   54   59 1   
    58   55   56 2   
    59   55   60 1   
    60   60   61 1   
    61   60   68 1   
    62   61   62 1   
    63   61   64 1   
    64   61   69 1   
    65   62   63 2   
    66   62   72 1   
    67   64   65 1   
    68   64   70 1   
    69   64   71 1   
    70   65   66 1   
    71   65   67 1   
    72   72   73 1   
    73   72   76 1   
    74   73   74 1   
    75   73   77 1   
    76   73   78 1   
    77   74   75 2   
    78   74   79 1   
    79   79   80 1   
    80   79   86 1   
    81   80   81 1   
    82   80   83 1   
    83   80   87 1   
    84   81   82 2   
    85   81   93 1   
    86   83   84 1   
    87   83   85 1   
    88   83   88 1   
    89   84   90 1   
    90   84   91 1   
    91   84   92 1   
    92   85   89 1   
    93   93   94 1   
    94   93  101 1   
    95   94   95 1   
    96   94   97 1   
    97   94  102 1   
    98   95   96 2   
    99   95  112 1   
   100   97   98 1   
   101   97   99 1   
   102   97  103 1   
   103   98  100 1   
   104   98  104 1   
   105   98  105 1   
   106   99  106 1   
   107   99  107 1   
   108   99  108 1   
   109  100  109 1   
   110  100  110 1   
   111  100  111 1   
   112  112  113 1   
   113  112  119 1   
   114  113  114 1   
   115  113  116 1   
   116  113  120 1   
   117  114  115 2   
   118  114  126 1   
   119  116  117 1   
   120  116  118 1   
   121  116  121 1   
   122  117  123 1   
   123  117  124 1   
   124  117  125 1   
   125  118  122 1   
   126  126  127 1   
   127  126  133 1   
   128  127  128 1   
   129  127  130 1   
   130  127  134 1   
   131  128  129 2   
   132  128  140 1   
   133  130  131 1   
   134  130  132 1   
   135  130  135 1   
   136  131  137 1   
   137  131  138 1   
   138  131  139 1   
   139  132  136 1   
   140  140  141 1   
   141  140  149 1   
   142  141  142 1   
   143  141  144 1   
   144  141  150 1   
   145  142  143 2   
   146  142  162 1   
   147  144  145 1   
   148  144  151 1   
   149  144  152 1   
   150  145  146 1   
   151  145  153 1   
   152  145  154 1   
   153  146  147 1   
   154  146  155 1   
   155  146  156 1   
   156  147  148 1   
   157  147  157 1   
   158  147  158 1   
   159  148  159 1   
   160  148  160 1   
   161  148  161 1   
   162  162  163 1   
   163  162  171 1   
   164  163  164 1   
   165  163  166 1   
   166  163  172 1   
   167  164  165 2   
   168  164  177 1   
   169  166  167 1   
   170  166  173 1   
   171  166  174 1   
   172  167  168 1   
   173  167  175 1   
   174  167  176 1   
   175  168  169 1   
   176  168  170 1   
   177  177  178 1   
   178  177  182 1   
   179  178  179 1   
   180  178  180 1   
   181  178  181 1   
   182  184  185 1   
   183  184  186 1   
   184  187  188 1   
   185  187  189 1   
@<TRIPOS>SUBSTRUCTURE
     1 MOL         1 TEMP              0 ****  ****    0 ROOT
