@<TRIPOS>MOLECULE
MOL
  189   185     1     0     0
SMALL
resp


@<TRIPOS>ATOM
      1 C1         -0.2350    0.9720    6.4480 c3        1 MOL     -0.254357
      2 C2         -0.5810    1.0790    4.9110 c         1 MOL      0.640201
      3 O1          0.1010    1.7840    4.1480 o         1 MOL     -0.602647
      4 H1         -1.1080    1.2510    7.0370 hc        1 MOL      0.068668
      5 H2          0.0520   -0.0520    6.6860 hc        1 MOL      0.068668
      6 H3          0.5910    1.6440    6.6820 hc        1 MOL      0.068668
      7 N1         -1.6990    0.4890    4.5050 n         1 MOL     -0.493615
      8 C3         -2.1900    0.7730    3.1180 c3        1 MOL      0.118881
      9 C4         -2.5520    2.2440    2.8460 c         1 MOL      0.473089
     10 O2         -3.6280    2.6990    3.1910 o         1 MOL     -0.496466
     11 C5         -3.3670   -0.1370    2.8750 c3        1 MOL     -0.374516
     12 C6         -4.1220    0.0800    1.5790 c         1 MOL      0.718161
     13 O3         -5.3270   -0.2880    1.5220 o         1 MOL     -0.622124
     14 O4         -3.4370    0.5040    0.6240 o         1 MOL     -0.622124
     15 H4         -2.2280   -0.1780    5.0480 hn        1 MOL      0.312459
     16 H5         -1.3270    0.5140    2.4990 h1        1 MOL      0.060166
     17 H6         -4.1450   -0.0570    3.6240 hc        1 MOL      0.090613
     18 H7         -2.9160   -1.1320    2.9060 hc        1 MOL      0.090613
     19 N2         -1.6180    3.0590    2.2980 n         1 MOL     -0.107782
     20 C7         -1.8820    4.5300    2.2100 c3        1 MOL     -0.199452
     21 C8         -3.0250    4.9540    1.2120 c         1 MOL      0.487898
     22 O5         -3.6710    5.9630    1.4080 o         1 MOL     -0.548702
     23 C9         -0.4990    5.1680    1.9390 c3        1 MOL      0.069938
     24 C10        -0.4820    6.6380    1.5210 c3        1 MOL     -0.225154
     25 C11         1.0090    7.1100    1.2360 c3        1 MOL     -0.184545
     26 C12         1.6970    6.3690    0.0710 c3        1 MOL      0.027277
     27 N3          0.9340    6.6950   -1.2180 n4        1 MOL     -0.471404
     28 H8         -0.6820    2.7280    2.1270 hn        1 MOL      0.110764
     29 H9         -2.2870    4.8190    3.1790 h1        1 MOL      0.109356
     30 H10         0.0030    4.5780    1.1730 hc        1 MOL      0.073596
     31 H11         0.1070    5.0220    2.8480 hc        1 MOL      0.073596
     32 H12        -0.7840    7.2290    2.3810 hc        1 MOL      0.098426
     33 H13        -1.1360    6.8000    0.6680 hc        1 MOL      0.098426
     34 H14         1.6030    6.8600    2.1090 hc        1 MOL      0.100658
     35 H15         1.0970    8.1750    0.9870 hc        1 MOL      0.100658
     36 H16         1.7000    5.3100    0.3110 hx        1 MOL      0.093127
     37 H17         2.7400    6.6670    0.0410 hx        1 MOL      0.093127
     38 H18        -0.0560    6.8180   -1.0400 hn        1 MOL      0.352599
     39 H19         1.3110    7.4820   -1.7140 hn        1 MOL      0.352599
     40 H20         0.8900    5.8860   -1.8240 hn        1 MOL      0.352599
     41 N4         -3.1920    4.1470    0.1540 n         1 MOL     -0.222405
     42 C13        -4.0250    4.5470   -0.9720 c3        1 MOL      0.169439
     43 C14        -5.2960    3.7110   -1.1220 c         1 MOL      0.407214
     44 O6         -6.1330    3.7680   -2.0100 o         1 MOL     -0.489648
     45 C15        -3.2570    4.5870   -2.3170 c3        1 MOL     -0.351208
     46 C16        -2.6250    3.2340   -2.7360 c         1 MOL      1.005831
     47 O7         -1.6330    3.2260   -3.5280 o         1 MOL     -0.808409
     48 O8         -2.9560    2.2380   -2.0870 o         1 MOL     -0.808409
     49 H21        -2.6680    3.2920    0.0640 hn        1 MOL      0.087441
     50 H22        -4.4750    5.5170   -0.7590 h1        1 MOL      0.056885
     51 H23        -2.5010    5.3670   -2.2280 hc        1 MOL      0.039177
     52 H24        -3.9740    4.7830   -3.1110 hc        1 MOL      0.039177
     53 N5         -5.6040    2.9030   -0.1050 n         1 MOL     -0.283017
     54 C17        -6.9430    2.3120    0.1320 c3        1 MOL      0.034839
     55 C18        -7.4720    1.2580   -0.8750 c         1 MOL      0.380590
     56 O9         -8.5390    1.3920   -1.4730 o         1 MOL     -0.541180
     57 H25        -4.9180    2.7020    0.6150 hn        1 MOL      0.207900
     58 H26        -7.6900    3.0950    0.2540 h1        1 MOL      0.041049
     59 H27        -6.8880    1.8600    1.1150 h1        1 MOL      0.041049
     60 N6         -6.6880    0.2230   -1.1610 n         1 MOL     -0.112137
     61 C19        -6.9990   -0.9740   -2.0060 c3        1 MOL      0.015140
     62 C20        -7.0380   -2.3150   -1.1920 c         1 MOL      0.338216
     63 O10        -7.3550   -3.4050   -1.7720 o         1 MOL     -0.520409
     64 C21        -6.0130   -1.0600   -3.1900 c3        1 MOL      0.015173
     65 C22        -4.5880   -0.7970   -2.7560 c         1 MOL      0.557469
     66 O11        -4.0970   -1.2630   -1.6760 o         1 MOL     -0.639869
     67 O12        -3.8570   -0.0570   -3.4770 o         1 MOL     -0.639869
     68 H28        -5.7750    0.2390   -0.7280 hn        1 MOL      0.160698
     69 H29        -8.0100   -0.8940   -2.4150 h1        1 MOL      0.095489
     70 H30        -6.4140   -0.4170   -3.9810 hc        1 MOL      0.013144
     71 H31        -6.1900   -2.0630   -3.5910 hc        1 MOL      0.013144
     72 N7         -6.7770   -2.3110    0.1150 n         1 MOL     -0.240391
     73 C23        -6.6830   -3.5920    0.8150 c3        1 MOL     -0.089854
     74 C24        -5.4260   -4.3980    0.4610 c         1 MOL      0.506253
     75 O13        -5.3890   -5.5820    0.6300 o         1 MOL     -0.545382
     76 H32        -6.3820   -1.4740    0.5250 hn        1 MOL      0.166690
     77 H33        -7.5080   -4.2320    0.5020 h1        1 MOL      0.095133
     78 H34        -6.7980   -3.4800    1.8970 h1        1 MOL      0.095133
     79 N8         -4.3170   -3.7150    0.0280 n         1 MOL     -0.344845
     80 C25        -3.0540   -4.3990   -0.2760 c3        1 MOL     -0.088250
     81 C26        -1.8010   -3.6350    0.0860 c         1 MOL      0.769931
     82 O14        -1.8190   -2.4050    0.0480 o         1 MOL     -0.668367
     83 C27        -2.9180   -4.8480   -1.7800 c3        1 MOL      0.338826
     84 C28        -3.5390   -6.1740   -2.1110 c3        1 MOL     -0.429843
     85 O15        -3.5200   -3.9800   -2.7640 oh        1 MOL     -0.631947
     86 H35        -4.4410   -2.7270   -0.1700 hn        1 MOL      0.262838
     87 H36        -3.0220   -5.3450    0.2660 h1        1 MOL      0.092926
     88 H37        -1.9110   -5.0150   -2.1430 h1        1 MOL      0.069297
     89 H38        -4.4810   -4.0350   -2.7440 ho        1 MOL      0.422951
     90 H39        -4.6210   -6.1370   -2.1300 hc        1 MOL      0.106547
     91 H40        -3.0770   -6.6130   -2.9980 hc        1 MOL      0.106547
     92 H41        -3.2650   -6.8640   -1.3100 hc        1 MOL      0.106547
     93 N9         -0.7970   -4.3450    0.6000 n         1 MOL     -0.760525
     94 C29         0.4820   -3.6960    0.9870 c3        1 MOL      0.230585
     95 C30         1.5370   -3.8740   -0.1250 c         1 MOL      0.417459
     96 O16         1.8230   -5.0120   -0.4960 o         1 MOL     -0.542618
     97 C31         0.9700   -4.2740    2.3850 c3        1 MOL     -0.002833
     98 C32         0.0550   -3.7710    3.4500 c3        1 MOL      0.119210
     99 C33         2.4220   -4.0280    2.8510 c3        1 MOL     -0.298956
    100 C34         0.3590   -4.2130    4.9130 c3        1 MOL     -0.476498
    101 H42        -0.8490   -5.3510    0.7120 hn        1 MOL      0.343714
    102 H43         0.3400   -2.6250    1.1630 h1        1 MOL      0.127252
    103 H44         0.9580   -5.3590    2.3220 hc        1 MOL      0.034220
    104 H45        -0.9760   -3.9750    3.1740 hc        1 MOL      0.014246
    105 H46         0.0230   -2.6740    3.4040 hc        1 MOL      0.014246
    106 H47         3.1060   -4.1020    1.9960 hc        1 MOL      0.071588
    107 H48         2.5110   -3.0320    3.2860 hc        1 MOL      0.071588
    108 H49         2.7690   -4.6660    3.6670 hc        1 MOL      0.071588
    109 H50        -0.4390   -3.9140    5.5880 hc        1 MOL      0.126661
    110 H51         0.5770   -5.2850    4.9110 hc        1 MOL      0.126661
    111 H52         1.2620   -3.7520    5.3080 hc        1 MOL      0.126661
    112 N10         2.0300   -2.7690   -0.6310 n         1 MOL     -0.161478
    113 C35         3.2020   -2.7620   -1.5650 c3        1 MOL     -0.021510
    114 C36         4.5170   -2.6230   -0.9190 c         1 MOL      0.478658
    115 O17         4.5720   -2.4120    0.3080 o         1 MOL     -0.328334
    116 C37         3.0680   -1.5140   -2.5940 c3        1 MOL      0.190319
    117 C38         2.1010   -1.7160   -3.7500 c3        1 MOL     -0.448797
    118 O18         2.7300   -0.2740   -2.0290 oh        1 MOL     -0.588627
    119 H53         1.8000   -1.9200   -0.1430 hn        1 MOL      0.083833
    120 H54         3.2750   -3.7510   -2.0200 h1        1 MOL      0.092276
    121 H55         4.0200   -1.4200   -3.1200 h1        1 MOL      0.070396
    122 H56         1.8720   -0.3840   -1.6030 ho        1 MOL      0.452586
    123 H57         2.3990   -0.9850   -4.4980 hc        1 MOL      0.122017
    124 H58         2.1640   -2.6990   -4.2230 hc        1 MOL      0.122017
    125 H59         1.0790   -1.4560   -3.4920 hc        1 MOL      0.122017
    126 N11         5.6500   -2.6580   -1.6780 n         1 MOL     -0.523003
    127 C39         7.0610   -2.5580   -1.0620 c3        1 MOL      0.078893
    128 C40         7.2610   -1.3280   -0.1380 c         1 MOL      0.295069
    129 O19         7.7060   -1.5580    1.0330 o         1 MOL     -0.446345
    130 C41         8.1040   -2.4590   -2.1830 c3        1 MOL      0.433145
    131 C42         9.5020   -2.8780   -1.6920 c3        1 MOL     -0.552891
    132 O20         7.8160   -3.2850   -3.2360 oh        1 MOL     -0.651771
    133 H60         5.4550   -2.5080   -2.6590 hn        1 MOL      0.262859
    134 H61         7.3490   -3.4320   -0.4700 h1        1 MOL      0.094283
    135 H62         8.1840   -1.4280   -2.5430 h1        1 MOL     -0.011101
    136 H63         8.3150   -4.1000   -3.2060 ho        1 MOL      0.423544
    137 H64        10.1310   -2.9520   -2.5770 hc        1 MOL      0.146626
    138 H65         9.8830   -2.1870   -0.9390 hc        1 MOL      0.146626
    139 H66         9.4290   -3.8920   -1.2840 hc        1 MOL      0.146626
    140 N12         6.8270   -0.1440   -0.6330 n         1 MOL     -0.417338
    141 C43         6.9420    1.1210    0.1430 c3        1 MOL      0.001499
    142 C44         5.9540    1.2120    1.3190 c         1 MOL      0.380364
    143 O21         6.2260    1.9410    2.2040 o         1 MOL     -0.506359
    144 C45         6.6830    2.3040   -0.8140 c3        1 MOL     -0.173501
    145 C46         7.8750    2.6680   -1.7280 c3        1 MOL      0.145449
    146 C47         7.5550    3.8850   -2.6640 c3        1 MOL     -0.009486
    147 C48         8.5170    4.0190   -3.8470 c3        1 MOL     -0.090167
    148 N13         9.8200    4.5470   -3.4520 n4        1 MOL     -0.201345
    149 H67         6.5910   -0.1450   -1.6170 hn        1 MOL      0.309998
    150 H68         7.9490    1.1900    0.5370 h1        1 MOL      0.126199
    151 H69         6.5250    3.2340   -0.2650 hc        1 MOL      0.063127
    152 H70         5.7560    2.0860   -1.3530 hc        1 MOL      0.063127
    153 H71         8.1040    1.8620   -2.4230 hc        1 MOL     -0.022203
    154 H72         8.7140    2.9540   -1.1020 hc        1 MOL     -0.022203
    155 H73         7.4920    4.8210   -2.1000 hc        1 MOL      0.034592
    156 H74         6.5670    3.7180   -3.0820 hc        1 MOL      0.034592
    157 H75         8.0070    4.7750   -4.4530 hx        1 MOL      0.111558
    158 H76         8.5850    3.0530   -4.3340 hx        1 MOL      0.111558
    159 H77         9.6890    5.4490   -3.0140 hn        1 MOL      0.257161
    160 H78        10.2240    3.9560   -2.7350 hn        1 MOL      0.257161
    161 H79        10.4500    4.6860   -4.2190 hn        1 MOL      0.257161
    162 N14         4.8990    0.4230    1.3310 n         1 MOL     -0.095755
    163 C49         3.8910    0.4340    2.4520 c3        1 MOL     -0.150813
    164 C50         4.2920   -0.7020    3.4590 c         1 MOL      0.498392
    165 O22         4.0790   -0.5280    4.6630 o         1 MOL     -0.538606
    166 C51         2.5040    0.1560    1.7900 c3        1 MOL      0.212963
    167 C52         1.8560    1.3220    1.0050 c3        1 MOL     -0.031018
    168 C53         0.6600    0.9200    0.1740 c         1 MOL      0.628174
    169 O23         0.6060   -0.2260   -0.3250 o         1 MOL     -0.704843
    170 O24        -0.3540    1.6690   -0.0610 o         1 MOL     -0.704843
    171 H80         4.6320   -0.1330    0.5330 hn        1 MOL      0.132900
    172 H81         3.7690    1.4170    2.9090 h1        1 MOL      0.120795
    173 H82         1.7680   -0.2320    2.5050 hc        1 MOL     -0.048504
    174 H83         2.6270   -0.6520    1.0610 hc        1 MOL     -0.048504
    175 H84         2.5390    1.8530    0.3400 hc        1 MOL     -0.017030
    176 H85         1.5900    2.0880    1.7380 hc        1 MOL     -0.017030
    177 N15         5.0290   -1.7600    3.0020 n         1 MOL     -0.137011
    178 C54         5.5760   -2.7720    3.8400 c3        1 MOL     -0.283021
    179 H86         6.6310   -2.9070    3.6040 h1        1 MOL      0.107279
    180 H87         5.4730   -2.4750    4.8840 h1        1 MOL      0.107279
    181 H88         5.0440   -3.7090    3.6740 h1        1 MOL      0.107279
    182 H89         5.1220   -1.9240    2.0100 hn        1 MOL      0.145788
    183 Ca1        -1.9410    0.0670   -1.4050 Ca        1 MOL      1.789335
    184 O25        -1.3050   -1.9300   -3.0620 oh        1 MOL     -0.902480
    185 H90        -2.0720   -2.4970   -3.0700 ho        1 MOL      0.418360
    186 H91        -0.9860   -1.9370   -3.9630 ho        1 MOL      0.418360
    187 O26        -0.2070    0.9350   -3.3690 oh        1 MOL     -0.902480
    188 H92         0.2190    0.7140   -4.1910 ho        1 MOL      0.418360
    189 H93        -0.4150    1.8690   -3.4560 ho        1 MOL      0.418360
@<TRIPOS>BOND
     1    1    2 1   
     2    1    4 1   
     3    1    5 1   
     4    1    6 1   
     5    2    3 2   
     6    2    7 1   
     7    7    8 1   
     8    7   15 1   
     9    8    9 1   
    10    8   11 1   
    11    8   16 1   
    12    9   10 2   
    13    9   19 1   
    14   11   12 1   
    15   11   17 1   
    16   11   18 1   
    17   12   13 1   
    18   12   14 1   
    19   19   20 1   
    20   19   28 1   
    21   20   21 1   
    22   20   23 1   
    23   20   29 1   
    24   21   22 2   
    25   21   41 1   
    26   23   24 1   
    27   23   30 1   
    28   23   31 1   
    29   24   25 1   
    30   24   32 1   
    31   24   33 1   
    32   25   26 1   
    33   25   34 1   
    34   25   35 1   
    35   26   27 1   
    36   26   36 1   
    37   26   37 1   
    38   27   38 1   
    39   27   39 1   
    40   27   40 1   
    41   41   42 1   
    42   41   49 1   
    43   42   43 1   
    44   42   45 1   
    45   42   50 1   
    46   43   44 2   
    47   43   53 1   
    48   45   46 1   
    49   45   51 1   
    50   45   52 1   
    51   46   47 1   
    52   46   48 1   
    53   53   54 1   
    54   53   57 1   
    55   54   55 1   
    56   54   58 1   
    57   54   59 1   
    58   55   56 2   
    59   55   60 1   
    60   60   61 1   
    61   60   68 1   
    62   61   62 1   
    63   61   64 1   
    64   61   69 1   
    65   62   63 2   
    66   62   72 1   
    67   64   65 1   
    68   64   70 1   
    69   64   71 1   
    70   65   66 1   
    71   65   67 1   
    72   72   73 1   
    73   72   76 1   
    74   73   74 1   
    75   73   77 1   
    76   73   78 1   
    77   74   75 2   
    78   74   79 1   
    79   79   80 1   
    80   79   86 1   
    81   80   81 1   
    82   80   83 1   
    83   80   87 1   
    84   81   82 2   
    85   81   93 1   
    86   83   84 1   
    87   83   85 1   
    88   83   88 1   
    89   84   90 1   
    90   84   91 1   
    91   84   92 1   
    92   85   89 1   
    93   93   94 1   
    94   93  101 1   
    95   94   95 1   
    96   94   97 1   
    97   94  102 1   
    98   95   96 2   
    99   95  112 1   
   100   97   98 1   
   101   97   99 1   
   102   97  103 1   
   103   98  100 1   
   104   98  104 1   
   105   98  105 1   
   106   99  106 1   
   107   99  107 1   
   108   99  108 1   
   109  100  109 1   
   110  100  110 1   
   111  100  111 1   
   112  112  113 1   
   113  112  119 1   
   114  113  114 1   
   115  113  116 1   
   116  113  120 1   
   117  114  115 2   
   118  114  126 1   
   119  116  117 1   
   120  116  118 1   
   121  116  121 1   
   122  117  123 1   
   123  117  124 1   
   124  117  125 1   
   125  118  122 1   
   126  126  127 1   
   127  126  133 1   
   128  127  128 1   
   129  127  130 1   
   130  127  134 1   
   131  128  129 2   
   132  128  140 1   
   133  130  131 1   
   134  130  132 1   
   135  130  135 1   
   136  131  137 1   
   137  131  138 1   
   138  131  139 1   
   139  132  136 1   
   140  140  141 1   
   141  140  149 1   
   142  141  142 1   
   143  141  144 1   
   144  141  150 1   
   145  142  143 2   
   146  142  162 1   
   147  144  145 1   
   148  144  151 1   
   149  144  152 1   
   150  145  146 1   
   151  145  153 1   
   152  145  154 1   
   153  146  147 1   
   154  146  155 1   
   155  146  156 1   
   156  147  148 1   
   157  147  157 1   
   158  147  158 1   
   159  148  159 1   
   160  148  160 1   
   161  148  161 1   
   162  162  163 1   
   163  162  171 1   
   164  163  164 1   
   165  163  166 1   
   166  163  172 1   
   167  164  165 2   
   168  164  177 1   
   169  166  167 1   
   170  166  173 1   
   171  166  174 1   
   172  167  168 1   
   173  167  175 1   
   174  167  176 1   
   175  168  169 1   
   176  168  170 1   
   177  177  178 1   
   178  177  182 1   
   179  178  179 1   
   180  178  180 1   
   181  178  181 1   
   182  184  185 1   
   183  184  186 1   
   184  187  188 1   
   185  187  189 1   
@<TRIPOS>SUBSTRUCTURE
     1 MOL         1 TEMP              0 ****  ****    0 ROOT
