@<TRIPOS>MOLECULE
MOL
  181   177     1     0     0
SMALL
resp


@<TRIPOS>ATOM
      1 C1         -0.4290    2.6950    5.9180 c3        1 MOL     -0.379977
      2 C2         -0.5740    2.5590    4.4410 c         1 MOL      0.821673
      3 O1          0.3190    2.9870    3.7470 o         1 MOL     -0.592738
      4 H1          0.0870    3.6270    6.1470 hc        1 MOL      0.086141
      5 H2         -1.4160    2.7030    6.3820 hc        1 MOL      0.086141
      6 H3          0.1480    1.8560    6.3060 hc        1 MOL      0.086141
      7 N1         -1.7500    2.1010    3.9440 n         1 MOL     -0.622220
      8 C3         -2.1280    1.9180    2.5260 c3        1 MOL      0.005587
      9 C4         -2.7310    3.1640    1.9340 c         1 MOL      0.560593
     10 O2         -3.7930    3.6230    2.4090 o         1 MOL     -0.581652
     11 C5         -3.0640    0.7080    2.4740 c3        1 MOL     -0.010518
     12 C6         -3.4730    0.4390    1.0130 c         1 MOL      0.598197
     13 O3         -4.3250   -0.4550    0.7930 o         1 MOL     -0.658264
     14 O4         -3.1500    1.1460    0.0520 o         1 MOL     -0.658264
     15 H4         -2.5130    1.9390    4.5780 hn        1 MOL      0.305970
     16 H5         -1.2060    1.7220    1.9860 h1        1 MOL      0.070700
     17 H6         -3.9230    0.7820    3.1490 hc        1 MOL      0.013878
     18 H7         -2.5250   -0.1870    2.7650 hc        1 MOL      0.013878
     19 N2         -2.0450    3.8110    0.9890 n         1 MOL     -0.395179
     20 C7         -2.4520    5.0590    0.3990 c3        1 MOL      0.290620
     21 C8         -3.7360    4.9170   -0.4770 c         1 MOL      0.241304
     22 O5         -4.1550    5.9100   -1.0910 o         1 MOL     -0.501821
     23 C9         -1.3480    5.6470   -0.4850 c3        1 MOL     -0.474337
     24 H8         -1.2350    3.3610    0.5950 hn        1 MOL      0.272889
     25 H9         -2.6690    5.7150    1.2320 h1        1 MOL      0.021927
     26 H10        -1.5960    6.7060   -0.4990 hc        1 MOL      0.142534
     27 H11        -0.3770    5.4290   -0.0540 hc        1 MOL      0.142534
     28 H12        -1.4030    5.1230   -1.4420 hc        1 MOL      0.142534
     29 N3         -4.4080    3.7650   -0.5890 n         1 MOL     -0.111757
     30 C10        -5.6070    3.5310   -1.3350 c3        1 MOL      0.231668
     31 C11        -6.7960    3.0010   -0.5070 c         1 MOL      0.200258
     32 O6         -7.8880    2.6460   -1.0210 o         1 MOL     -0.497276
     33 C12        -5.3050    2.5320   -2.4680 c3        1 MOL     -0.204347
     34 C13        -4.0940    2.9010   -3.2970 c         1 MOL      0.737512
     35 O7         -4.2500    3.7220   -4.2270 o         1 MOL     -0.711975
     36 O8         -2.9270    2.5240   -3.0440 o         1 MOL     -0.711975
     37 H13        -3.9470    2.9050   -0.3070 hn        1 MOL      0.117799
     38 H14        -5.9570    4.4900   -1.7210 h1        1 MOL      0.050028
     39 H15        -6.2140    2.3280   -3.0390 hc        1 MOL      0.017800
     40 H16        -5.1020    1.5390   -2.0690 hc        1 MOL      0.017800
     41 N4         -6.5420    2.5920    0.7200 n         1 MOL     -0.018896
     42 C14        -7.5600    2.0660    1.6910 c3        1 MOL     -0.055764
     43 C15        -7.9480    0.6320    1.3400 c         1 MOL      0.372416
     44 O9         -9.1490    0.3380    1.6170 o         1 MOL     -0.556350
     45 H17        -5.6890    2.8950    1.1690 hn        1 MOL      0.046865
     46 H18        -8.4800    2.6450    1.7350 h1        1 MOL      0.080243
     47 H19        -7.1820    2.0410    2.7090 h1        1 MOL      0.080243
     48 N5         -7.1670   -0.2370    0.6690 n         1 MOL     -0.111423
     49 C16        -7.6090   -1.5570    0.3140 c3        1 MOL     -0.036414
     50 C17        -7.1180   -2.6480    1.2970 c         1 MOL      0.366412
     51 O10        -7.6980   -3.7410    1.2920 o         1 MOL     -0.501318
     52 C18        -7.0720   -1.9340   -1.0030 c3        1 MOL     -0.095297
     53 C19        -7.6650   -3.2080   -1.5310 c         1 MOL      0.685304
     54 N6         -8.9830   -3.3680   -1.5920 n         1 MOL     -0.859389
     55 O11        -6.9110   -4.0030   -2.0960 o         1 MOL     -0.597288
     56 H20        -6.2480    0.0600    0.3770 hn        1 MOL      0.201951
     57 H21        -8.7030   -1.5160    0.2920 h1        1 MOL      0.077842
     58 H22        -5.9800   -1.9360   -1.0310 hc        1 MOL      0.044522
     59 H23        -7.4150   -1.1890   -1.7120 hc        1 MOL      0.044522
     60 H24        -9.5490   -2.6050   -1.2720 hn        1 MOL      0.383334
     61 H25        -9.3500   -4.1510   -2.1080 hn        1 MOL      0.383334
     62 N7         -6.2080   -2.3230    2.1860 n         1 MOL     -0.161049
     63 C20        -5.4730   -3.2040    3.0600 c3        1 MOL     -0.099482
     64 C21        -4.2600   -3.8650    2.3140 c         1 MOL      0.494913
     65 O12        -4.0900   -5.0750    2.5130 o         1 MOL     -0.550810
     66 H26        -5.9260   -1.3560    2.1050 hn        1 MOL      0.110019
     67 H27        -6.1070   -4.0330    3.3930 h1        1 MOL      0.077015
     68 H28        -5.1420   -2.6270    3.9120 h1        1 MOL      0.077015
     69 N8         -3.6270   -3.1510    1.4000 n         1 MOL     -0.401257
     70 C22        -2.5010   -3.7530    0.6310 c3        1 MOL      0.039090
     71 C23        -1.3950   -2.6920    0.2400 c         1 MOL      0.246153
     72 O13        -1.5760   -1.5460   -0.1880 o         1 MOL     -0.429329
     73 C24        -2.9930   -4.4280   -0.6570 c3        1 MOL      0.264104
     74 C25        -3.9340   -5.6040   -0.3750 c3        1 MOL     -0.462764
     75 O14        -3.6280   -3.5400   -1.4880 oh        1 MOL     -0.538380
     76 H29        -4.0080   -2.2610    1.1230 hn        1 MOL      0.380282
     77 H30        -2.0810   -4.4850    1.3150 h1        1 MOL      0.098524
     78 H31        -2.1250   -4.9050   -1.1190 h1        1 MOL     -0.003103
     79 H32        -3.6900   -4.0950   -2.2710 ho        1 MOL      0.404149
     80 H33        -4.0820   -6.1980   -1.2780 hc        1 MOL      0.132620
     81 H34        -3.5760   -6.2090    0.4530 hc        1 MOL      0.132620
     82 H35        -4.8770   -5.0950   -0.1550 hc        1 MOL      0.132620
     83 N9         -0.1690   -3.1480    0.4360 n         1 MOL     -0.278379
     84 C26         1.0180   -2.2150    0.4900 c3        1 MOL      0.153430
     85 C27         2.2570   -2.7110   -0.4000 c         1 MOL      0.195636
     86 O15         2.7050   -3.8600   -0.3240 o         1 MOL     -0.532736
     87 C28         1.4970   -1.8210    1.8740 c3        1 MOL      0.089679
     88 C29         1.8080   -3.1130    2.7150 c3        1 MOL     -0.268569
     89 C30         0.3860   -0.8970    2.5430 c3        1 MOL     -0.478007
     90 C31         2.3580   -2.6080    4.0720 c3        1 MOL     -0.011641
     91 H36        -0.1170   -4.0660    0.8530 hn        1 MOL      0.221434
     92 H37         0.6990   -1.2680    0.0500 h1        1 MOL      0.053041
     93 H38         2.4850   -1.3690    1.7830 hc        1 MOL      0.097427
     94 H39         2.5920   -3.7100    2.2410 hc        1 MOL      0.081218
     95 H40         0.9170   -3.7010    2.9410 hc        1 MOL      0.081218
     96 H41         0.1390   -0.1170    1.8220 hc        1 MOL      0.136223
     97 H42        -0.4470   -1.5600    2.7360 hc        1 MOL      0.136223
     98 H43         0.8310   -0.4980    3.4590 hc        1 MOL      0.136223
     99 H44         3.2260   -1.9700    3.9180 hc        1 MOL      0.004340
    100 H45         1.5530   -2.1930    4.6730 hc        1 MOL      0.004340
    101 H46         2.6720   -3.4010    4.7430 hc        1 MOL      0.004340
    102 N10         2.7110   -1.8450   -1.2800 n         1 MOL     -0.073989
    103 C32         4.0360   -1.9260   -2.0740 c3        1 MOL      0.022497
    104 C33         5.2400   -1.5480   -1.1650 c         1 MOL      0.456876
    105 O16         5.0800   -1.2950   -0.0000 o         1 MOL     -0.300343
    106 C34         3.9220   -1.0510   -3.3710 c3        1 MOL     -0.202683
    107 C35         2.6550   -1.2510   -4.1810 c         1 MOL      0.719970
    108 O17         2.2600   -0.2510   -4.8880 o         1 MOL     -0.710431
    109 O18         2.1020   -2.3740   -4.1490 o         1 MOL     -0.710431
    110 H47         2.1120   -1.0310   -1.4080 hn        1 MOL      0.324085
    111 H48         4.1980   -2.9630   -2.3760 h1        1 MOL      0.070019
    112 H49         4.7620   -1.2320   -4.0300 hc        1 MOL      0.027612
    113 H50         4.0890   -0.0410   -2.9900 hc        1 MOL      0.027612
    114 N11         6.5140   -1.6390   -1.6300 n         1 MOL     -0.648121
    115 C36         7.6760   -1.3260   -0.7350 c3        1 MOL      0.246327
    116 C37         7.6790    0.1330   -0.1320 c         1 MOL      0.436565
    117 O19         7.8510    0.2070    1.1130 o         1 MOL     -0.482001
    118 C38         9.0270   -1.5810   -1.5230 c3        1 MOL     -0.115095
    119 C39        10.2310   -1.4520   -0.5890 ca        1 MOL      0.049456
    120 C40        10.3960   -2.2690    0.5980 ca        1 MOL     -0.175431
    121 C41        11.2490   -0.5860   -0.8820 ca        1 MOL     -0.175431
    122 C42        11.4780   -2.0940    1.4640 ca        1 MOL     -0.057819
    123 C43        12.3760   -0.4170   -0.0550 ca        1 MOL     -0.057819
    124 C44        12.4990   -1.1350    1.1240 ca        1 MOL     -0.161585
    125 H51         6.7170   -1.7360   -2.6200 hn        1 MOL      0.334400
    126 H52         7.7900   -2.0100    0.1040 h1        1 MOL      0.093961
    127 H53         9.1010   -0.9090   -2.3770 hc        1 MOL      0.046868
    128 H54         8.9610   -2.5770   -1.9570 hc        1 MOL      0.046868
    129 H55         9.6500   -3.0110    0.8390 ha        1 MOL      0.113509
    130 H56        11.3110   -0.0190   -1.7960 ha        1 MOL      0.113509
    131 H57        11.5700   -2.7790    2.2980 ha        1 MOL      0.097922
    132 H58        13.1430    0.2490   -0.4130 ha        1 MOL      0.097922
    133 H59        13.3730   -1.0340    1.7430 ha        1 MOL      0.109755
    134 N12         7.5570    1.2520   -0.9150 n         1 MOL     -0.231359
    135 C45         7.4400    2.5820   -0.2570 c3        1 MOL      0.013581
    136 C46         6.3670    2.6000    0.8420 c         1 MOL      0.296730
    137 O20         6.5130    3.3440    1.8320 o         1 MOL     -0.500266
    138 C47         6.9540    3.4800   -1.3890 c3        1 MOL     -0.057600
    139 C48         6.3700    2.6600   -2.3810 c3        1 MOL      0.076357
    140 C49         7.1710    1.3920   -2.3260 c3        1 MOL     -0.144266
    141 H60         8.4320    2.8310    0.1160 h1        1 MOL      0.080070
    142 H61         6.2660    4.2560   -1.0630 hc        1 MOL      0.047611
    143 H62         7.8150    4.0330   -1.7800 hc        1 MOL      0.047611
    144 H63         5.3380    2.3760   -2.1910 hc        1 MOL      0.004496
    145 H64         6.4890    3.1350   -3.3570 hc        1 MOL      0.004496
    146 H65         6.6680    0.4710   -2.6290 h1        1 MOL      0.072079
    147 H66         8.0930    1.5100   -2.8950 h1        1 MOL      0.072079
    148 N13         5.2510    1.8770    0.6820 n         1 MOL     -0.203750
    149 C50         4.0830    1.8070    1.6370 c3        1 MOL     -0.080475
    150 C51         4.5260    0.9220    2.7900 c         1 MOL      0.388299
    151 O21         4.1430    1.1180    3.9450 o         1 MOL     -0.566419
    152 C52         2.8090    1.2470    0.9900 c3        1 MOL      0.215198
    153 C53         2.3750    2.0200   -0.2310 c3        1 MOL     -0.204581
    154 C54         1.0100    1.5340   -0.7960 c         1 MOL      0.838319
    155 O22         0.9350    0.3880   -1.4300 o         1 MOL     -0.770195
    156 O23        -0.0830    2.1140   -0.5830 o         1 MOL     -0.770195
    157 H67         5.3400    1.1510   -0.0160 hn        1 MOL      0.356983
    158 H68         3.9130    2.7750    2.1060 h1        1 MOL      0.140496
    159 H69         1.9780    1.2580    1.6870 hc        1 MOL     -0.051227
    160 H70         2.9960    0.2190    0.6750 hc        1 MOL     -0.051227
    161 H71         3.1710    1.9030   -0.9590 hc        1 MOL      0.001899
    162 H72         2.4030    3.0930   -0.0140 hc        1 MOL      0.001899
    163 N14         5.3490   -0.0760    2.5120 n         1 MOL      0.186006
    164 C55         6.0190   -0.9540    3.4760 c3        1 MOL     -0.344360
    165 H73         6.6050   -0.3510    4.1710 h1        1 MOL      0.108521
    166 H74         5.2730   -1.5240    4.0300 h1        1 MOL      0.108521
    167 H75         6.6810   -1.6390    2.9450 h1        1 MOL      0.108521
    168 H76         5.5080   -0.2980    1.5380 hn        1 MOL     -0.170703
    169 Ca1        -1.6930    0.5190   -1.9620 Ca        1 MOL      1.715556
    170 O24        -2.8560   -0.1090   -4.3650 oh        1 MOL     -0.864179
    171 H77        -3.5820   -0.7220   -4.3740 ho        1 MOL      0.410801
    172 H78        -3.0470    0.5030   -5.0720 ho        1 MOL      0.410801
    173 O25        -3.8830   -0.8030   -1.8330 oh        1 MOL     -0.864179
    174 H79        -4.0290   -0.6060   -0.9110 ho        1 MOL      0.410801
    175 H80        -3.8560   -1.7650   -1.8710 ho        1 MOL      0.410801
    176 O26        -0.6770   -1.7320   -3.2590 oh        1 MOL     -0.864179
    177 H81        -0.9640   -1.9630   -4.1400 ho        1 MOL      0.410801
    178 H82         0.1890   -2.1190   -3.1850 ho        1 MOL      0.410801
    179 O27        -0.1450    1.2070   -4.1170 oh        1 MOL     -0.864179
    180 H83         0.5690    0.6700   -4.4560 ho        1 MOL      0.410801
    181 H84        -0.6930    1.3750   -4.8810 ho        1 MOL      0.410801
@<TRIPOS>BOND
     1    1    2 1   
     2    1    4 1   
     3    1    5 1   
     4    1    6 1   
     5    2    3 2   
     6    2    7 1   
     7    7    8 1   
     8    7   15 1   
     9    8    9 1   
    10    8   11 1   
    11    8   16 1   
    12    9   10 2   
    13    9   19 1   
    14   11   12 1   
    15   11   17 1   
    16   11   18 1   
    17   12   13 1   
    18   12   14 1   
    19   19   20 1   
    20   19   24 1   
    21   20   21 1   
    22   20   23 1   
    23   20   25 1   
    24   21   22 2   
    25   21   29 1   
    26   23   26 1   
    27   23   27 1   
    28   23   28 1   
    29   29   30 1   
    30   29   37 1   
    31   30   31 1   
    32   30   33 1   
    33   30   38 1   
    34   31   32 2   
    35   31   41 1   
    36   33   34 1   
    37   33   39 1   
    38   33   40 1   
    39   34   35 1   
    40   34   36 1   
    41   41   42 1   
    42   41   45 1   
    43   42   43 1   
    44   42   46 1   
    45   42   47 1   
    46   43   44 2   
    47   43   48 1   
    48   48   49 1   
    49   48   56 1   
    50   49   50 1   
    51   49   52 1   
    52   49   57 1   
    53   50   51 2   
    54   50   62 1   
    55   52   53 1   
    56   52   58 1   
    57   52   59 1   
    58   53   54 1   
    59   53   55 2   
    60   54   60 1   
    61   54   61 1   
    62   62   63 1   
    63   62   66 1   
    64   63   64 1   
    65   63   67 1   
    66   63   68 1   
    67   64   65 2   
    68   64   69 1   
    69   69   70 1   
    70   69   76 1   
    71   70   71 1   
    72   70   73 1   
    73   70   77 1   
    74   71   72 2   
    75   71   83 1   
    76   73   74 1   
    77   73   75 1   
    78   73   78 1   
    79   74   80 1   
    80   74   81 1   
    81   74   82 1   
    82   75   79 1   
    83   83   84 1   
    84   83   91 1   
    85   84   85 1   
    86   84   87 1   
    87   84   92 1   
    88   85   86 2   
    89   85  102 1   
    90   87   88 1   
    91   87   89 1   
    92   87   93 1   
    93   88   90 1   
    94   88   94 1   
    95   88   95 1   
    96   89   96 1   
    97   89   97 1   
    98   89   98 1   
    99   90   99 1   
   100   90  100 1   
   101   90  101 1   
   102  102  103 1   
   103  102  110 1   
   104  103  104 1   
   105  103  106 1   
   106  103  111 1   
   107  104  105 2   
   108  104  114 1   
   109  106  107 1   
   110  106  112 1   
   111  106  113 1   
   112  107  108 1   
   113  107  109 1   
   114  114  115 1   
   115  114  125 1   
   116  115  116 1   
   117  115  118 1   
   118  115  126 1   
   119  116  117 2   
   120  116  134 1   
   121  118  119 1   
   122  118  127 1   
   123  118  128 1   
   124  119  120 ar  
   125  119  121 ar  
   126  120  122 ar  
   127  120  129 1   
   128  121  123 ar  
   129  121  130 1   
   130  122  124 ar  
   131  122  131 1   
   132  123  124 ar  
   133  123  132 1   
   134  124  133 1   
   135  134  135 1   
   136  134  140 1   
   137  135  136 1   
   138  135  138 1   
   139  135  141 1   
   140  136  137 2   
   141  136  148 1   
   142  138  139 1   
   143  138  142 1   
   144  138  143 1   
   145  139  140 1   
   146  139  144 1   
   147  139  145 1   
   148  140  146 1   
   149  140  147 1   
   150  148  149 1   
   151  148  157 1   
   152  149  150 1   
   153  149  152 1   
   154  149  158 1   
   155  150  151 2   
   156  150  163 1   
   157  152  153 1   
   158  152  159 1   
   159  152  160 1   
   160  153  154 1   
   161  153  161 1   
   162  153  162 1   
   163  154  155 1   
   164  154  156 1   
   165  163  164 1   
   166  163  168 1   
   167  164  165 1   
   168  164  166 1   
   169  164  167 1   
   170  170  171 1   
   171  170  172 1   
   172  173  174 1   
   173  173  175 1   
   174  176  177 1   
   175  176  178 1   
   176  179  180 1   
   177  179  181 1   
@<TRIPOS>SUBSTRUCTURE
     1 MOL         1 TEMP              0 ****  ****    0 ROOT
