@<TRIPOS>MOLECULE
MOL
  176   174     1     0     0
SMALL
resp


@<TRIPOS>ATOM
      1 C1         -1.2320   -3.6780    5.5060 c3        1 MOL     -0.372929
      2 C2         -0.8620   -3.1780    4.0840 c         1 MOL      0.654990
      3 O1         -1.6940   -2.9010    3.2850 o         1 MOL     -0.555417
      4 H1         -0.4230   -4.2940    5.8960 hc        1 MOL      0.100420
      5 H2         -1.3860   -2.8220    6.1630 hc        1 MOL      0.100420
      6 H3         -2.1470   -4.2680    5.4590 hc        1 MOL      0.100420
      7 N1          0.4580   -3.0920    3.7580 n         1 MOL     -0.567419
      8 C3          0.9380   -2.7580    2.4430 c3        1 MOL      0.171180
      9 C4          1.2630   -4.0650    1.7210 c         1 MOL      0.413465
     10 O2          2.3030   -4.7490    2.0220 o         1 MOL     -0.546513
     11 C5          2.2050   -1.8990    2.7590 c3        1 MOL     -0.449224
     12 C6          3.1130   -1.4670    1.6090 c         1 MOL      0.790215
     13 O3          2.7300   -1.4660    0.3960 o         1 MOL     -0.683932
     14 O4          4.2490   -0.9830    1.9240 o         1 MOL     -0.683932
     15 H4          1.1560   -3.1620    4.4870 hn        1 MOL      0.322029
     16 H5          0.2130   -2.3140    1.7720 h1        1 MOL      0.026063
     17 H6          2.9040   -2.4580    3.3780 hc        1 MOL      0.129830
     18 H7          1.8290   -0.9900    3.2290 hc        1 MOL      0.129830
     19 N2          0.5670   -4.3660    0.6740 n         1 MOL     -0.145258
     20 C7          0.6400   -5.4840   -0.2140 c3        1 MOL     -0.156211
     21 C8          1.8320   -5.6310   -1.1390 c         1 MOL      0.502942
     22 O5          1.9110   -6.6950   -1.7290 o         1 MOL     -0.553025
     23 C9         -0.6870   -5.6680   -0.9690 c3        1 MOL     -0.032534
     24 C10        -1.8920   -5.9550   -0.1240 c3        1 MOL      0.034406
     25 C11        -3.1900   -5.7280   -0.9720 c3        1 MOL     -0.083836
     26 C12        -4.4910   -5.7780   -0.1600 c3        1 MOL      0.177788
     27 N3         -5.5930   -6.3480   -1.0140 n4        1 MOL     -0.300178
     28 H8         -0.1560   -3.7320    0.3780 hn        1 MOL      0.225998
     29 H9          0.7550   -6.3370    0.4560 h1        1 MOL      0.102478
     30 H10        -0.5320   -6.4570   -1.7100 hc        1 MOL      0.063982
     31 H11        -0.8720   -4.7820   -1.5840 hc        1 MOL      0.063982
     32 H12        -1.9480   -5.1750    0.6410 hc        1 MOL      0.017011
     33 H13        -1.8260   -6.9560    0.3070 hc        1 MOL      0.017011
     34 H14        -3.1410   -6.4750   -1.7600 hc        1 MOL      0.009103
     35 H15        -3.1150   -4.7450   -1.4340 hc        1 MOL      0.009103
     36 H16        -4.7500   -4.7470    0.0640 hx        1 MOL      0.040311
     37 H17        -4.3350   -6.4550    0.6890 hx        1 MOL      0.040311
     38 H18        -5.7320   -5.7030   -1.7700 hn        1 MOL      0.301665
     39 H19        -5.2420   -7.1930   -1.4500 hn        1 MOL      0.301665
     40 H20        -6.4970   -6.5630   -0.6100 hn        1 MOL      0.301665
     41 N4          2.7010   -4.6160   -1.2800 n         1 MOL     -0.137670
     42 C13         3.8980   -4.6330   -2.0710 c3        1 MOL     -0.011494
     43 C14         5.1760   -4.1860   -1.2800 c         1 MOL      0.427858
     44 O6          6.2220   -4.1830   -1.8980 o         1 MOL     -0.474099
     45 C15         3.5970   -3.8660   -3.4050 c3        1 MOL     -0.147776
     46 C16         2.7180   -2.5990   -3.0510 c         1 MOL      0.752133
     47 O7          3.3180   -1.5790   -2.6270 o         1 MOL     -0.770625
     48 O8          1.5000   -2.6040   -3.3130 o         1 MOL     -0.770625
     49 H21         2.5260   -3.8110   -0.6950 hn        1 MOL      0.015742
     50 H22         4.1300   -5.6590   -2.3660 h1        1 MOL      0.091563
     51 H23         2.9000   -4.5190   -3.9340 hc        1 MOL      0.049540
     52 H24         4.5400   -3.6930   -3.9120 hc        1 MOL      0.049540
     53 N5          4.9860   -3.8200    0.0020 n         1 MOL     -0.357124
     54 C17         6.1120   -3.4290    0.8770 c3        1 MOL      0.105862
     55 C18         6.8220   -2.2120    0.2850 c         1 MOL      0.295455
     56 O9          8.0450   -2.2190    0.2520 o         1 MOL     -0.533540
     57 H25         4.0590   -3.8510    0.3990 hn        1 MOL      0.215277
     58 H26         6.8060   -4.2580    1.0190 h1        1 MOL      0.051362
     59 H27         5.7650   -3.2510    1.8970 h1        1 MOL      0.051362
     60 N6          6.0900   -1.1590   -0.1590 n         1 MOL     -0.100796
     61 C19         6.5990    0.1010   -0.8440 c3        1 MOL     -0.014178
     62 C20         6.5430    1.3650    0.0970 c         1 MOL      0.202833
     63 O10         6.9570    2.4500   -0.4050 o         1 MOL     -0.413664
     64 C21         6.0020    0.2950   -2.2460 c3        1 MOL     -0.263798
     65 C22         4.5930    0.9620   -2.2910 c         1 MOL      0.557759
     66 N7          4.3540    1.8330   -3.2320 n         1 MOL     -0.717627
     67 O11         3.8610    0.7970   -1.2900 o         1 MOL     -0.383267
     68 H28         5.1020   -1.2600    0.0020 hn        1 MOL      0.303745
     69 H29         7.6470   -0.0870   -1.0540 h1        1 MOL      0.130207
     70 H30         5.8830   -0.7070   -2.6540 hc        1 MOL      0.094470
     71 H31         6.7180    0.9630   -2.7220 hc        1 MOL      0.094470
     72 H32         5.0910    2.1340   -3.8490 hn        1 MOL      0.358155
     73 H33         3.4780    2.3360   -3.1940 hn        1 MOL      0.358155
     74 N8          6.0110    1.2240    1.2920 n         1 MOL     -0.080220
     75 C23         5.7850    2.2760    2.1900 c3        1 MOL     -0.147110
     76 C24         4.6230    3.3200    1.9180 c         1 MOL      0.551354
     77 O12         4.5820    4.4730    2.3350 o         1 MOL     -0.555042
     78 H34         5.5930    0.3370    1.5100 hn        1 MOL      0.152580
     79 H35         6.6650    2.8800    2.3980 h1        1 MOL      0.085779
     80 H36         5.4880    1.8290    3.1440 h1        1 MOL      0.085779
     81 N9          3.6450    2.8710    1.1250 n         1 MOL     -0.299624
     82 C25         2.4580    3.7150    0.7390 c3        1 MOL      0.006728
     83 C26         1.1970    2.8660    0.7020 c         1 MOL      0.576417
     84 O13         1.2980    1.6210    0.3940 o         1 MOL     -0.672402
     85 C27         2.6850    4.3700   -0.6000 c3        1 MOL      0.049905
     86 C28         3.8420    5.3840   -0.6780 ca        1 MOL     -0.247771
     87 C29         5.0040    5.0440   -1.3560 ca        1 MOL      0.077951
     88 C30         3.6770    6.6080    0.1130 ca        1 MOL      0.077951
     89 C31         6.1370    5.8690   -1.1590 ca        1 MOL     -0.487717
     90 C32         4.7660    7.5010    0.2670 ca        1 MOL     -0.487717
     91 C33         6.0300    6.9960   -0.2470 ca        1 MOL      0.561333
     92 O14         7.1760    7.6420    0.1380 oh        1 MOL     -0.521796
     93 H37         3.5820    1.9210    0.7880 hn        1 MOL      0.189537
     94 H38         2.2820    4.4960    1.4790 h1        1 MOL      0.078037
     95 H39         1.7670    4.8300   -0.9640 hc        1 MOL      0.000002
     96 H40         2.8710    3.6570   -1.4050 hc        1 MOL      0.000002
     97 H41         5.1210    4.0620   -1.7940 ha        1 MOL      0.085131
     98 H42         2.7370    6.8420    0.5960 ha        1 MOL      0.085131
     99 H43         7.1310    5.6480   -1.5040 ha        1 MOL      0.204112
    100 H44         4.7910    8.2330    1.0620 ha        1 MOL      0.204112
    101 H45         6.9480    8.3510    0.7360 ho        1 MOL      0.357613
    102 N10         0.0330    3.3110    1.1240 n         1 MOL     -0.512031
    103 C34        -1.1890    2.5200    1.1570 c3        1 MOL     -0.043060
    104 C35        -2.3130    3.3820    0.6530 c         1 MOL      0.553369
    105 O15        -2.4530    4.5060    1.0630 o         1 MOL     -0.553101
    106 C36        -1.4210    2.1230    2.6400 c3        1 MOL      0.072599
    107 C37        -0.4110    1.0760    3.0890 c3        1 MOL      0.121951
    108 C38        -2.8760    1.6830    2.8850 c3        1 MOL     -0.150529
    109 C39        -0.6290    0.4120    4.4240 c3        1 MOL     -0.271648
    110 H46        -0.0880    4.2840    1.3850 hn        1 MOL      0.314022
    111 H47        -1.2060    1.5610    0.6290 h1        1 MOL      0.171981
    112 H48        -1.2650    3.0120    3.2580 hc        1 MOL      0.009321
    113 H49         0.5690    1.5230    3.2200 hc        1 MOL      0.018708
    114 H50        -0.2720    0.3310    2.3050 hc        1 MOL      0.018708
    115 H51        -3.0390    1.4710    3.9390 hc        1 MOL      0.043663
    116 H52        -3.5930    2.4660    2.6580 hc        1 MOL      0.043663
    117 H53        -3.0700    0.7400    2.3620 hc        1 MOL      0.043663
    118 H54         0.3210   -0.0520    4.6990 hc        1 MOL      0.064919
    119 H55        -0.8530    1.0430    5.2890 hc        1 MOL      0.064919
    120 H56        -1.3760   -0.3850    4.2960 hc        1 MOL      0.064919
    121 N11        -3.2000    2.8710   -0.1520 n         1 MOL     -0.410289
    122 C40        -4.3290    3.6890   -0.7530 c3        1 MOL      0.084427
    123 C41        -5.6250    3.3760   -0.1220 c         1 MOL      0.659062
    124 O16        -5.7270    2.4110    0.6430 o         1 MOL     -0.506850
    125 C42        -4.2420    3.4950   -2.2640 c3        1 MOL     -0.054352
    126 O17        -4.9280    2.2630   -2.5680 oh        1 MOL     -0.429448
    127 H57        -3.0500    1.8840   -0.3380 hn        1 MOL      0.236741
    128 H58        -4.1280    4.7290   -0.4900 h1        1 MOL      0.068203
    129 H59        -3.2210    3.4600   -2.6560 h1        1 MOL      0.079335
    130 H60        -4.7280    4.3110   -2.8030 h1        1 MOL      0.079335
    131 H61        -4.8470    2.1080   -3.5130 ho        1 MOL      0.369989
    132 N12        -6.6490    4.2500   -0.4530 n         1 MOL     -0.646274
    133 C43        -8.0800    3.9630   -0.0650 c3        1 MOL      0.251275
    134 C44        -8.6000    2.6050   -0.6660 c         1 MOL      0.409551
    135 O18        -9.5900    2.1180   -0.1190 o         1 MOL     -0.512400
    136 C45        -8.9460    5.1340   -0.4640 c3        1 MOL     -0.317587
    137 H62        -6.4920    4.9590   -1.1630 hn        1 MOL      0.327503
    138 H63        -8.0950    3.8460    1.0210 h1        1 MOL      0.080076
    139 H64        -8.7560    6.0310    0.1150 hc        1 MOL      0.100498
    140 H65        -8.9310    5.3110   -1.5470 hc        1 MOL      0.100498
    141 H66        -9.9520    4.9150   -0.1090 hc        1 MOL      0.100498
    142 N13        -8.0170    1.9830   -1.7420 n         1 MOL     -0.375321
    143 C46        -8.3780    0.5780   -2.1160 c3        1 MOL      0.216281
    144 C47        -7.6120   -0.4210   -1.2920 c         1 MOL      0.353677
    145 O19        -8.1130   -1.4230   -0.8670 o         1 MOL     -0.528289
    146 C48        -8.1840    0.3590   -3.6200 c3        1 MOL     -0.370541
    147 H67        -7.1690    2.4240   -2.0600 hn        1 MOL      0.173002
    148 H68        -9.3990    0.4080   -1.7680 h1        1 MOL      0.086879
    149 H69        -7.1850    0.6380   -3.9640 hc        1 MOL      0.103221
    150 H70        -8.3640   -0.7000   -3.7890 hc        1 MOL      0.103221
    151 H71        -8.9110    0.9570   -4.1520 hc        1 MOL      0.103221
    152 N14        -6.3350   -0.2230   -1.0910 n         1 MOL      0.054470
    153 C49        -5.4350   -1.0850   -0.3640 c3        1 MOL     -0.511792
    154 C50        -5.8300   -1.3260    1.0620 c         1 MOL      0.647931
    155 O20        -5.7170   -2.4380    1.6210 o         1 MOL     -0.582924
    156 C51        -3.9700   -0.6480   -0.6000 c3        1 MOL     -0.045790
    157 C52        -2.8370   -1.5380   -0.0590 c3        1 MOL     -0.009567
    158 C53        -1.4830   -0.9990   -0.5700 c         1 MOL      0.672968
    159 O21        -1.3200    0.0160   -1.2470 o         1 MOL     -0.762040
    160 O22        -0.4650   -1.6070   -0.2090 o         1 MOL     -0.762040
    161 H72        -5.8710    0.4820   -1.6590 hn        1 MOL      0.068936
    162 H73        -5.3570   -2.0940   -0.7750 h1        1 MOL      0.166630
    163 H74        -3.8680    0.3590   -0.1920 hc        1 MOL      0.052966
    164 H75        -3.8140   -0.5440   -1.6800 hc        1 MOL      0.052966
    165 H76        -3.0600   -2.5420   -0.4320 hc        1 MOL      0.049125
    166 H77        -2.9150   -1.5630    1.0280 hc        1 MOL      0.049125
    167 N15        -6.3270   -0.2380    1.7280 n         1 MOL     -0.136288
    168 C54        -6.7880   -0.2610    3.0720 c3        1 MOL     -0.332340
    169 H78        -6.1090   -0.8630    3.6770 h1        1 MOL      0.122064
    170 H79        -6.8190    0.7550    3.4640 h1        1 MOL      0.122064
    171 H80        -7.7870   -0.6960    3.1070 h1        1 MOL      0.122064
    172 H81        -6.4610    0.6320    1.2420 hn        1 MOL      0.205525
    173 Ca1         1.4460   -0.3530   -1.4220 Ca        1 MOL      1.726987
    174 O23         1.3920    1.8850   -3.0780 oh        1 MOL     -0.962218
    175 H82         1.3780    1.8990   -4.0320 ho        1 MOL      0.461433
    176 H83         0.8110    2.6100   -2.8200 ho        1 MOL      0.461433
@<TRIPOS>BOND
     1    1    2 1   
     2    1    4 1   
     3    1    5 1   
     4    1    6 1   
     5    2    3 2   
     6    2    7 1   
     7    7    8 1   
     8    7   15 1   
     9    8    9 1   
    10    8   11 1   
    11    8   16 1   
    12    9   10 2   
    13    9   19 1   
    14   11   12 1   
    15   11   17 1   
    16   11   18 1   
    17   12   13 1   
    18   12   14 1   
    19   19   20 1   
    20   19   28 1   
    21   20   21 1   
    22   20   23 1   
    23   20   29 1   
    24   21   22 2   
    25   21   41 1   
    26   23   24 1   
    27   23   30 1   
    28   23   31 1   
    29   24   25 1   
    30   24   32 1   
    31   24   33 1   
    32   25   26 1   
    33   25   34 1   
    34   25   35 1   
    35   26   27 1   
    36   26   36 1   
    37   26   37 1   
    38   27   38 1   
    39   27   39 1   
    40   27   40 1   
    41   41   42 1   
    42   41   49 1   
    43   42   43 1   
    44   42   45 1   
    45   42   50 1   
    46   43   44 2   
    47   43   53 1   
    48   45   46 1   
    49   45   51 1   
    50   45   52 1   
    51   46   47 1   
    52   46   48 1   
    53   53   54 1   
    54   53   57 1   
    55   54   55 1   
    56   54   58 1   
    57   54   59 1   
    58   55   56 2   
    59   55   60 1   
    60   60   61 1   
    61   60   68 1   
    62   61   62 1   
    63   61   64 1   
    64   61   69 1   
    65   62   63 2   
    66   62   74 1   
    67   64   65 1   
    68   64   70 1   
    69   64   71 1   
    70   65   66 1   
    71   65   67 2   
    72   66   72 1   
    73   66   73 1   
    74   74   75 1   
    75   74   78 1   
    76   75   76 1   
    77   75   79 1   
    78   75   80 1   
    79   76   77 2   
    80   76   81 1   
    81   81   82 1   
    82   81   93 1   
    83   82   83 1   
    84   82   85 1   
    85   82   94 1   
    86   83   84 2   
    87   83  102 1   
    88   85   86 1   
    89   85   95 1   
    90   85   96 1   
    91   86   87 ar  
    92   86   88 ar  
    93   87   89 ar  
    94   87   97 1   
    95   88   90 ar  
    96   88   98 1   
    97   89   91 ar  
    98   89   99 1   
    99   90   91 ar  
   100   90  100 1   
   101   91   92 1   
   102   92  101 1   
   103  102  103 1   
   104  102  110 1   
   105  103  104 1   
   106  103  106 1   
   107  103  111 1   
   108  104  105 2   
   109  104  121 1   
   110  106  107 1   
   111  106  108 1   
   112  106  112 1   
   113  107  109 1   
   114  107  113 1   
   115  107  114 1   
   116  108  115 1   
   117  108  116 1   
   118  108  117 1   
   119  109  118 1   
   120  109  119 1   
   121  109  120 1   
   122  121  122 1   
   123  121  127 1   
   124  122  123 1   
   125  122  125 1   
   126  122  128 1   
   127  123  124 2   
   128  123  132 1   
   129  125  126 1   
   130  125  129 1   
   131  125  130 1   
   132  126  131 1   
   133  132  133 1   
   134  132  137 1   
   135  133  134 1   
   136  133  136 1   
   137  133  138 1   
   138  134  135 2   
   139  134  142 1   
   140  136  139 1   
   141  136  140 1   
   142  136  141 1   
   143  142  143 1   
   144  142  147 1   
   145  143  144 1   
   146  143  146 1   
   147  143  148 1   
   148  144  145 2   
   149  144  152 1   
   150  146  149 1   
   151  146  150 1   
   152  146  151 1   
   153  152  153 1   
   154  152  161 1   
   155  153  154 1   
   156  153  156 1   
   157  153  162 1   
   158  154  155 2   
   159  154  167 1   
   160  156  157 1   
   161  156  163 1   
   162  156  164 1   
   163  157  158 1   
   164  157  165 1   
   165  157  166 1   
   166  158  159 1   
   167  158  160 1   
   168  167  168 1   
   169  167  172 1   
   170  168  169 1   
   171  168  170 1   
   172  168  171 1   
   173  174  175 1   
   174  174  176 1   
@<TRIPOS>SUBSTRUCTURE
     1 MOL         1 TEMP              0 ****  ****    0 ROOT
