@<TRIPOS>MOLECULE
MOL
  176   174     1     0     0
SMALL
resp


@<TRIPOS>ATOM
      1 C1          0.8000    2.8030    6.3060 c3        1 MOL     -0.275453
      2 C2          0.4220    2.5980    4.8430 c         1 MOL      0.798645
      3 O1          1.3040    2.4990    3.9990 o         1 MOL     -0.627219
      4 H1          0.3910    1.9890    6.9040 hc        1 MOL      0.065795
      5 H2          1.8860    2.8150    6.4030 hc        1 MOL      0.065795
      6 H3          0.3930    3.7510    6.6580 hc        1 MOL      0.065795
      7 N1         -0.8870    2.5370    4.5230 n         1 MOL     -0.697139
      8 C3         -1.3670    2.2680    3.1490 c3        1 MOL      0.333483
      9 C4         -1.5250    3.5680    2.3500 c         1 MOL      0.532966
     10 O2         -2.1300    4.5270    2.8440 o         1 MOL     -0.580575
     11 C5         -2.7160    1.5120    3.2750 c3        1 MOL     -0.376650
     12 C6         -3.2160    1.0680    1.8730 c         1 MOL      0.779820
     13 O3         -2.7340    1.4560    0.7590 o         1 MOL     -0.669700
     14 O4         -4.1860    0.3380    1.8870 o         1 MOL     -0.669700
     15 H4         -1.5770    2.5900    5.2530 hn        1 MOL      0.331771
     16 H5         -0.6200    1.6410    2.6580 h1        1 MOL     -0.062469
     17 H6         -3.4470    2.1960    3.7080 hc        1 MOL      0.091852
     18 H7         -2.4310    0.6320    3.8650 hc        1 MOL      0.091852
     19 N2         -0.9640    3.6160    1.1360 n         1 MOL     -0.270431
     20 C7         -0.9090    4.8560    0.3640 c3        1 MOL     -0.168928
     21 C8         -2.2340    5.1400   -0.3830 c         1 MOL      0.562963
     22 O5         -2.3390    6.1580   -1.1000 o         1 MOL     -0.561844
     23 C9          0.2170    4.7460   -0.6130 c3        1 MOL      0.053287
     24 C10         0.7390    6.0300   -1.2670 c3        1 MOL      0.059551
     25 C11         2.0690    5.8010   -2.0230 c3        1 MOL     -0.260103
     26 C12         1.7210    5.4460   -3.4380 c3        1 MOL      0.194131
     27 N3          2.8300    5.3930   -4.4210 n4        1 MOL     -0.448762
     28 H8         -0.6060    2.7650    0.7160 hn        1 MOL      0.178458
     29 H9         -0.8050    5.7380    1.0030 h1        1 MOL      0.115090
     30 H10        -0.1700    4.2040   -1.4790 hc        1 MOL      0.073992
     31 H11         0.9720    4.1940   -0.0620 hc        1 MOL      0.073992
     32 H12         0.7490    6.7960   -0.4920 hc        1 MOL      0.009737
     33 H13        -0.0560    6.3630   -1.9430 hc        1 MOL      0.009737
     34 H14         2.6920    5.0700   -1.5090 hc        1 MOL      0.086060
     35 H15         2.4870    6.8050   -2.0150 hc        1 MOL      0.086060
     36 H16         0.9900    6.1640   -3.7920 hx        1 MOL      0.054858
     37 H17         1.1640    4.5230   -3.5920 hx        1 MOL      0.054858
     38 H18         3.1790    6.2990   -4.6650 hn        1 MOL      0.342322
     39 H19         3.5900    4.9230   -3.9520 hn        1 MOL      0.342322
     40 H20         2.5910    4.9630   -5.3090 hn        1 MOL      0.342322
     41 N4         -3.1850    4.1850   -0.5200 n         1 MOL     -0.481162
     42 C13        -4.1730    4.1610   -1.6730 c3        1 MOL      0.023604
     43 C14        -5.5400    3.5160   -1.2110 c         1 MOL      0.419615
     44 O6         -6.4780    3.3720   -2.0180 o         1 MOL     -0.498931
     45 C15        -3.5740    3.5460   -2.9390 c3        1 MOL     -0.133758
     46 C16        -2.9010    2.2130   -2.5960 c         1 MOL      0.746291
     47 O7         -1.6610    2.0000   -2.5320 o         1 MOL     -0.811113
     48 O8         -3.6510    1.2560   -2.2010 o         1 MOL     -0.811113
     49 H21        -3.1060    3.3680    0.0720 hn        1 MOL      0.279524
     50 H22        -4.3220    5.2020   -1.9260 h1        1 MOL      0.120712
     51 H23        -2.8580    4.2470   -3.3700 hc        1 MOL      0.049067
     52 H24        -4.3640    3.4390   -3.6810 hc        1 MOL      0.049067
     53 N5         -5.6400    3.0700    0.0460 n         1 MOL     -0.301896
     54 C17        -6.8520    2.5650    0.6190 c3        1 MOL     -0.052212
     55 C18        -7.2400    1.1770    0.1420 c         1 MOL      0.421272
     56 O9         -8.4260    0.8390    0.0680 o         1 MOL     -0.564156
     57 H25        -4.7880    2.9880    0.5650 hn        1 MOL      0.223729
     58 H26        -7.6430    3.3000    0.4760 h1        1 MOL      0.083468
     59 H27        -6.7300    2.4560    1.7000 h1        1 MOL      0.083468
     60 N6         -6.3120    0.3060   -0.2630 n         1 MOL     -0.152371
     61 C19        -6.6420   -0.9890   -0.8710 c3        1 MOL      0.036275
     62 C20        -6.5480   -2.1460    0.1610 c         1 MOL      0.356203
     63 O10        -7.0320   -3.2620   -0.1020 o         1 MOL     -0.548236
     64 C21        -5.8460   -1.1600   -2.1270 c3        1 MOL     -0.302649
     65 C22        -4.5890   -1.8560   -1.9180 c         1 MOL      0.832431
     66 N7         -4.2670   -2.9730   -2.5950 n         1 MOL     -0.910179
     67 O11        -3.8690   -1.5050   -0.9880 o         1 MOL     -0.692421
     68 H28        -5.3410    0.4210   -0.0240 hn        1 MOL      0.358160
     69 H29        -7.6710   -0.9830   -1.2300 h1        1 MOL      0.114826
     70 H30        -5.6750   -0.1620   -2.5370 hc        1 MOL      0.099103
     71 H31        -6.3550   -1.7960   -2.8430 hc        1 MOL      0.099103
     72 H32        -4.8830   -3.4130   -3.2570 hn        1 MOL      0.380725
     73 H33        -3.4820   -3.4760   -2.2050 hn        1 MOL      0.380725
     74 N8         -5.9190   -1.8840    1.2860 n         1 MOL     -0.160985
     75 C23        -5.8150   -2.8820    2.3350 c3        1 MOL     -0.114272
     76 C24        -4.4480   -3.5890    2.4380 c         1 MOL      0.526201
     77 O12        -4.2850   -4.2750    3.3980 o         1 MOL     -0.573553
     78 H34        -5.5570   -0.9570    1.4180 hn        1 MOL      0.118476
     79 H35        -6.5830   -3.6580    2.3250 h1        1 MOL      0.101648
     80 H36        -6.0000   -2.4290    3.3090 h1        1 MOL      0.101648
     81 N9         -3.5180   -3.3360    1.5580 n         1 MOL     -0.301153
     82 C25        -2.0770   -3.8380    1.7320 c3        1 MOL     -0.001168
     83 C26        -0.9820   -2.8480    1.4240 c         1 MOL      0.761425
     84 O13        -1.2350   -1.8580    0.7050 o         1 MOL     -0.783068
     85 C27        -1.9350   -5.1280    0.8940 c3        1 MOL     -0.144006
     86 C28        -2.0900   -4.8910   -0.6400 ca        1 MOL     -0.009763
     87 C29        -1.0400   -4.4810   -1.4610 ca        1 MOL     -0.079556
     88 C30        -3.2050   -5.4740   -1.2620 ca        1 MOL     -0.079556
     89 C31        -1.0450   -4.6780   -2.8270 ca        1 MOL     -0.278176
     90 C32        -3.1810   -5.8170   -2.6050 ca        1 MOL     -0.278176
     91 C33        -2.1350   -5.4130   -3.3940 ca        1 MOL      0.357445
     92 O14        -2.1580   -5.7980   -4.6690 oh        1 MOL     -0.526791
     93 H37        -3.7320   -2.7500    0.7680 hn        1 MOL      0.232136
     94 H38        -1.9180   -3.9540    2.8090 h1        1 MOL      0.073289
     95 H39        -2.5900   -5.9140    1.2530 hc        1 MOL      0.079588
     96 H40        -0.9360   -5.5320    1.0820 hc        1 MOL      0.079588
     97 H41        -0.1550   -4.0300   -1.0300 ha        1 MOL      0.130133
     98 H42        -4.0340   -5.7930   -0.6420 ha        1 MOL      0.130133
     99 H43        -0.2620   -4.4470   -3.5370 ha        1 MOL      0.139130
    100 H44        -3.8730   -6.5770   -2.9490 ha        1 MOL      0.139130
    101 H45        -2.9950   -6.2110   -4.9020 ho        1 MOL      0.393007
    102 N10         0.1990   -3.2380    1.9200 n         1 MOL     -0.485594
    103 C34         1.4340   -2.4030    1.6870 c3        1 MOL      0.020786
    104 C35         2.5050   -3.2300    0.8630 c         1 MOL      0.338916
    105 O15         2.7360   -4.4460    1.1520 o         1 MOL     -0.486414
    106 C36         2.1120   -1.8630    3.0210 c3        1 MOL      0.062363
    107 C37         2.5690   -2.9430    4.0780 c3        1 MOL     -0.053708
    108 C38         1.1510   -0.9430    3.6850 c3        1 MOL     -0.410117
    109 C39         4.0190   -3.1770    4.0350 c3        1 MOL     -0.028487
    110 H46         0.2400   -3.9140    2.6620 hn        1 MOL      0.288896
    111 H47         1.2550   -1.4860    1.1240 h1        1 MOL      0.180545
    112 H48         2.9460   -1.2190    2.7410 hc        1 MOL      0.048085
    113 H49         2.1920   -3.9230    3.7770 hc        1 MOL      0.039485
    114 H50         2.2710   -2.7490    5.1140 hc        1 MOL      0.039485
    115 H51         0.2870   -1.4620    4.0920 hc        1 MOL      0.113071
    116 H52         1.6200   -0.5450    4.5840 hc        1 MOL      0.113071
    117 H53         0.7690   -0.1100    3.0950 hc        1 MOL      0.113071
    118 H54         4.4920   -2.2110    4.1860 hc        1 MOL      0.003737
    119 H55         4.3080   -3.8370    4.8610 hc        1 MOL      0.003737
    120 H56         4.3040   -3.5370    3.0520 hc        1 MOL      0.003737
    121 N11         3.1410   -2.6090   -0.1360 n         1 MOL     -0.179588
    122 C40         4.3530   -3.1440   -0.7760 c3        1 MOL      0.076722
    123 C41         5.6980   -2.5830   -0.1170 c         1 MOL      0.594479
    124 O16         5.6260   -1.7220    0.6980 o         1 MOL     -0.478723
    125 C42         4.3170   -2.9380   -2.2580 c3        1 MOL     -0.173467
    126 O17         4.3710   -1.4900   -2.4130 oh        1 MOL     -0.442232
    127 H57         2.9750   -1.6200   -0.2350 hn        1 MOL      0.120429
    128 H58         4.4670   -4.2120   -0.6110 h1        1 MOL      0.041447
    129 H59         3.3420   -3.3190   -2.5670 h1        1 MOL      0.109940
    130 H60         5.1460   -3.3610   -2.8210 h1        1 MOL      0.109940
    131 H61         4.2110   -1.3050   -3.3490 ho        1 MOL      0.350023
    132 N12         6.8360   -3.0890   -0.5510 n         1 MOL     -0.552665
    133 C43         8.1430   -2.3430   -0.4640 c3        1 MOL      0.192898
    134 C44         8.0870   -0.8240   -0.7980 c         1 MOL      0.414504
    135 O18         8.7490   -0.0390   -0.1020 o         1 MOL     -0.474685
    136 C45         9.2660   -3.0010   -1.2420 c3        1 MOL     -0.293678
    137 H62         6.8590   -3.8940   -1.1610 hn        1 MOL      0.308893
    138 H63         8.4140   -2.4040    0.5890 h1        1 MOL      0.059393
    139 H64         9.1370   -2.9450   -2.3190 hc        1 MOL      0.089872
    140 H65        10.2490   -2.6070   -0.9980 hc        1 MOL      0.089872
    141 H66         9.2220   -4.0570   -1.0260 hc        1 MOL      0.089872
    142 N13         7.5670   -0.5460   -2.0100 n         1 MOL     -0.374942
    143 C46         7.3660    0.8480   -2.4460 c3        1 MOL      0.121752
    144 C47         6.5800    1.7100   -1.4020 c         1 MOL      0.341431
    145 O19         6.8110    2.8670   -1.2210 o         1 MOL     -0.508263
    146 C48         6.5090    0.9170   -3.8170 c3        1 MOL     -0.330090
    147 H67         7.2230   -1.3010   -2.5880 hn        1 MOL      0.262768
    148 H68         8.3650    1.2450   -2.6010 h1        1 MOL      0.073358
    149 H69         6.6680    1.8650   -4.3220 hc        1 MOL      0.089271
    150 H70         6.7730    0.0750   -4.4600 hc        1 MOL      0.089271
    151 H71         5.4580    0.9380   -3.5210 hc        1 MOL      0.089271
    152 N14         5.5580    1.1090   -0.7890 n         1 MOL      0.018437
    153 C49         4.7980    1.8840    0.3180 c3        1 MOL     -0.276557
    154 C50         5.5260    1.9700    1.7040 c         1 MOL      0.539453
    155 O20         5.3590    3.0140    2.3830 o         1 MOL     -0.536349
    156 C51         3.3450    1.3710    0.4890 c3        1 MOL      0.106911
    157 C52         2.5260    1.5780   -0.7590 c3        1 MOL      0.262339
    158 C53         1.1870    0.9060   -0.6850 c         1 MOL      0.545992
    159 O21         1.0020   -0.2190   -1.1550 o         1 MOL     -0.716134
    160 O22         0.2720    1.4360   -0.0360 o         1 MOL     -0.716134
    161 H72         5.1640    0.2650   -1.1700 hn        1 MOL      0.127684
    162 H73         4.7590    2.9140   -0.0420 h1        1 MOL      0.105448
    163 H74         2.9410    1.8660    1.3670 hc        1 MOL      0.043708
    164 H75         3.3890    0.3180    0.7360 hc        1 MOL      0.043708
    165 H76         3.0660    1.2870   -1.6630 hc        1 MOL     -0.131373
    166 H77         2.2860    2.6400   -0.8560 hc        1 MOL     -0.131373
    167 N15         6.3090    0.9550    2.0630 n         1 MOL     -0.208442
    168 C54         7.1560    1.0240    3.2630 c3        1 MOL     -0.268709
    169 H78         6.8630    0.2380    3.9590 h1        1 MOL      0.116165
    170 H79         8.2000    0.8890    2.9810 h1        1 MOL      0.116165
    171 H80         7.0310    1.9960    3.7400 h1        1 MOL      0.116165
    172 H81         6.4310    0.1330    1.4830 hn        1 MOL      0.187248
    173 Ca1        -1.5900   -0.0920   -1.0420 Ca        1 MOL      1.809039
    174 O23        -1.2410   -1.5610   -3.1720 oh        1 MOL     -0.876173
    175 H82        -1.9630   -1.5890   -3.7900 ho        1 MOL      0.426289
    176 H83        -0.5100   -1.9760   -3.6340 ho        1 MOL      0.426289
@<TRIPOS>BOND
     1    1    2 1   
     2    1    4 1   
     3    1    5 1   
     4    1    6 1   
     5    2    3 2   
     6    2    7 1   
     7    7    8 1   
     8    7   15 1   
     9    8    9 1   
    10    8   11 1   
    11    8   16 1   
    12    9   10 2   
    13    9   19 1   
    14   11   12 1   
    15   11   17 1   
    16   11   18 1   
    17   12   13 1   
    18   12   14 1   
    19   19   20 1   
    20   19   28 1   
    21   20   21 1   
    22   20   23 1   
    23   20   29 1   
    24   21   22 2   
    25   21   41 1   
    26   23   24 1   
    27   23   30 1   
    28   23   31 1   
    29   24   25 1   
    30   24   32 1   
    31   24   33 1   
    32   25   26 1   
    33   25   34 1   
    34   25   35 1   
    35   26   27 1   
    36   26   36 1   
    37   26   37 1   
    38   27   38 1   
    39   27   39 1   
    40   27   40 1   
    41   41   42 1   
    42   41   49 1   
    43   42   43 1   
    44   42   45 1   
    45   42   50 1   
    46   43   44 2   
    47   43   53 1   
    48   45   46 1   
    49   45   51 1   
    50   45   52 1   
    51   46   47 1   
    52   46   48 1   
    53   53   54 1   
    54   53   57 1   
    55   54   55 1   
    56   54   58 1   
    57   54   59 1   
    58   55   56 2   
    59   55   60 1   
    60   60   61 1   
    61   60   68 1   
    62   61   62 1   
    63   61   64 1   
    64   61   69 1   
    65   62   63 2   
    66   62   74 1   
    67   64   65 1   
    68   64   70 1   
    69   64   71 1   
    70   65   66 1   
    71   65   67 2   
    72   66   72 1   
    73   66   73 1   
    74   74   75 1   
    75   74   78 1   
    76   75   76 1   
    77   75   79 1   
    78   75   80 1   
    79   76   77 2   
    80   76   81 1   
    81   81   82 1   
    82   81   93 1   
    83   82   83 1   
    84   82   85 1   
    85   82   94 1   
    86   83   84 2   
    87   83  102 1   
    88   85   86 1   
    89   85   95 1   
    90   85   96 1   
    91   86   87 ar  
    92   86   88 ar  
    93   87   89 ar  
    94   87   97 1   
    95   88   90 ar  
    96   88   98 1   
    97   89   91 ar  
    98   89   99 1   
    99   90   91 ar  
   100   90  100 1   
   101   91   92 1   
   102   92  101 1   
   103  102  103 1   
   104  102  110 1   
   105  103  104 1   
   106  103  106 1   
   107  103  111 1   
   108  104  105 2   
   109  104  121 1   
   110  106  107 1   
   111  106  108 1   
   112  106  112 1   
   113  107  109 1   
   114  107  113 1   
   115  107  114 1   
   116  108  115 1   
   117  108  116 1   
   118  108  117 1   
   119  109  118 1   
   120  109  119 1   
   121  109  120 1   
   122  121  122 1   
   123  121  127 1   
   124  122  123 1   
   125  122  125 1   
   126  122  128 1   
   127  123  124 2   
   128  123  132 1   
   129  125  126 1   
   130  125  129 1   
   131  125  130 1   
   132  126  131 1   
   133  132  133 1   
   134  132  137 1   
   135  133  134 1   
   136  133  136 1   
   137  133  138 1   
   138  134  135 2   
   139  134  142 1   
   140  136  139 1   
   141  136  140 1   
   142  136  141 1   
   143  142  143 1   
   144  142  147 1   
   145  143  144 1   
   146  143  146 1   
   147  143  148 1   
   148  144  145 2   
   149  144  152 1   
   150  146  149 1   
   151  146  150 1   
   152  146  151 1   
   153  152  153 1   
   154  152  161 1   
   155  153  154 1   
   156  153  156 1   
   157  153  162 1   
   158  154  155 2   
   159  154  167 1   
   160  156  157 1   
   161  156  163 1   
   162  156  164 1   
   163  157  158 1   
   164  157  165 1   
   165  157  166 1   
   166  158  159 1   
   167  158  160 1   
   168  167  168 1   
   169  167  172 1   
   170  168  169 1   
   171  168  170 1   
   172  168  171 1   
   173  174  175 1   
   174  174  176 1   
@<TRIPOS>SUBSTRUCTURE
     1 MOL         1 TEMP              0 ****  ****    0 ROOT
