@<TRIPOS>MOLECULE
MOL
  189   185     1     0     0
SMALL
resp


@<TRIPOS>ATOM
      1 C1          0.4390    2.9450    4.9060 c3        1 MOL     -0.228746
      2 C2         -0.2240    2.5590    3.5280 c         1 MOL      0.479641
      3 O1          0.3820    2.6710    2.4700 o         1 MOL     -0.512457
      4 H1          0.7340    3.9940    4.8850 hc        1 MOL      0.066573
      5 H2         -0.2770    2.7850    5.7130 hc        1 MOL      0.066573
      6 H3          1.3200    2.3240    5.0730 hc        1 MOL      0.066573
      7 N1         -1.4830    2.0560    3.5590 n         1 MOL     -0.491242
      8 C3         -2.1720    1.6460    2.3570 c3        1 MOL     -0.018117
      9 C4         -2.9100    2.8020    1.6480 c         1 MOL      0.592012
     10 O2         -4.1190    2.8160    1.5240 o         1 MOL     -0.500429
     11 C5         -3.0820    0.5110    2.5830 c3        1 MOL     -0.143941
     12 C6         -3.6950   -0.1030    1.2310 c         1 MOL      0.747176
     13 O3         -3.1320    0.0160    0.1580 o         1 MOL     -0.695786
     14 O4         -4.7920   -0.6350    1.4420 o         1 MOL     -0.695786
     15 H4         -1.9830    1.9000    4.4200 hn        1 MOL      0.328686
     16 H5         -1.3730    1.3970    1.6650 h1        1 MOL      0.140895
     17 H6         -3.9540    0.8050    3.1720 hc        1 MOL      0.026814
     18 H7         -2.5120   -0.2560    3.1000 hc        1 MOL      0.026814
     19 N2         -2.2180    3.8230    1.1630 n         1 MOL     -0.598687
     20 C7         -2.8220    5.0410    0.5700 c3        1 MOL      0.150842
     21 C8         -3.7670    4.7520   -0.6610 c         1 MOL      0.378830
     22 O5         -4.6190    5.5840   -0.8880 o         1 MOL     -0.538281
     23 C9         -1.7630    6.0290    0.3040 c3        1 MOL     -0.050044
     24 C10        -0.9020    6.3470    1.5480 c3        1 MOL      0.047223
     25 C11        -0.0380    7.6030    1.3950 c3        1 MOL      0.113072
     26 C12         1.0430    7.7740    2.4230 c3        1 MOL     -0.001280
     27 N3          0.3930    7.7910    3.7410 n4        1 MOL     -0.230925
     28 H8         -1.2050    3.7550    1.1480 hn        1 MOL      0.325403
     29 H9         -3.4480    5.4480    1.3700 h1        1 MOL      0.064662
     30 H10        -2.3190    6.9260    0.0000 hc        1 MOL      0.028269
     31 H11        -1.0770    5.6920   -0.4780 hc        1 MOL      0.028269
     32 H12        -0.2400    5.5010    1.6910 hc        1 MOL     -0.029208
     33 H13        -1.5410    6.5300    2.4140 hc        1 MOL     -0.029208
     34 H14        -0.6230    8.5150    1.4480 hc        1 MOL     -0.005407
     35 H15         0.5050    7.6130    0.4470 hc        1 MOL     -0.005407
     36 H16         1.6200    8.6950    2.2720 hx        1 MOL      0.084063
     37 H17         1.7040    6.9200    2.3800 hx        1 MOL      0.084063
     38 H18        -0.2350    8.5410    3.9850 hn        1 MOL      0.287645
     39 H19        -0.1020    6.9440    3.9730 hn        1 MOL      0.287645
     40 H20         1.0960    7.7370    4.4710 hn        1 MOL      0.287645
     41 N4         -3.7360    3.6250   -1.3410 n         1 MOL     -0.117131
     42 C13        -4.6780    3.2020   -2.4080 c3        1 MOL     -0.303595
     43 C14        -6.0850    2.6830   -1.8810 c         1 MOL      0.585865
     44 O6         -7.0300    2.7260   -2.6870 o         1 MOL     -0.533079
     45 C15        -3.9650    2.1550   -3.2790 c3        1 MOL     -0.008501
     46 C16        -2.5050    2.3940   -3.4580 c         1 MOL      0.669044
     47 O7         -1.7250    1.5170   -3.0200 o         1 MOL     -0.720257
     48 O8         -2.0820    3.4660   -3.9920 o         1 MOL     -0.720257
     49 H21        -2.9880    3.0080   -1.0740 hn        1 MOL      0.202853
     50 H22        -4.8360    4.0480   -3.0850 h1        1 MOL      0.150990
     51 H23        -4.4970    2.1260   -4.2240 hc        1 MOL      0.030228
     52 H24        -4.1630    1.1610   -2.8670 hc        1 MOL      0.030228
     53 N5         -6.2590    2.1740   -0.6600 n         1 MOL     -0.306680
     54 C17        -7.5070    1.5280   -0.2670 c3        1 MOL     -0.131786
     55 C18        -7.7210    0.1000   -0.8030 c         1 MOL      0.575975
     56 O9         -8.8920   -0.1790   -1.2010 o         1 MOL     -0.572588
     57 H25        -5.4990    2.1820    0.0040 hn        1 MOL      0.238199
     58 H26        -8.3980    2.0590   -0.5900 h1        1 MOL      0.085048
     59 H27        -7.5770    1.5990    0.8190 h1        1 MOL      0.085048
     60 N6         -6.7090   -0.7410   -0.6740 n         1 MOL     -0.458191
     61 C19        -6.7870   -2.1070   -1.2950 c3        1 MOL      0.114060
     62 C20        -6.5640   -3.2750   -0.3300 c         1 MOL      0.446599
     63 O10        -6.7810   -4.4410   -0.7200 o         1 MOL     -0.543138
     64 C21        -5.8400   -2.2260   -2.4830 c3        1 MOL     -0.189583
     65 C22        -4.3510   -1.9430   -2.2160 c         1 MOL      0.801414
     66 O11        -3.9150   -2.5630   -1.2460 o         1 MOL     -0.793162
     67 O12        -3.6080   -1.1960   -2.9400 o         1 MOL     -0.793162
     68 H28        -5.8410   -0.4480   -0.2330 hn        1 MOL      0.291669
     69 H29        -7.8220   -2.2180   -1.6350 h1        1 MOL      0.082343
     70 H30        -6.1520   -1.5550   -3.2860 hc        1 MOL      0.052632
     71 H31        -5.8700   -3.2340   -2.8940 hc        1 MOL      0.052632
     72 N7         -6.1670   -3.0010    0.9250 n         1 MOL     -0.392455
     73 C23        -5.9160   -4.0400    1.9870 c3        1 MOL      0.014835
     74 C24        -4.5850   -4.7710    1.9140 c         1 MOL      0.463115
     75 O13        -4.3920   -5.8030    2.5470 o         1 MOL     -0.562364
     76 H32        -5.8930   -2.0470    1.0960 hn        1 MOL      0.261986
     77 H33        -6.7370   -4.7590    2.0080 h1        1 MOL      0.068774
     78 H34        -5.9190   -3.6580    3.0150 h1        1 MOL      0.068774
     79 N8         -3.6480   -4.2390    1.1980 n         1 MOL     -0.182237
     80 C25        -2.2870   -4.7190    1.1940 c3        1 MOL     -0.400217
     81 C26        -1.2820   -3.5800    1.1820 c         1 MOL      0.776795
     82 O14        -1.4060   -2.5560    0.5150 o         1 MOL     -0.706626
     83 C27        -1.9170   -5.6400    0.0800 c3        1 MOL      0.537612
     84 C28        -2.3820   -7.0570    0.4390 c3        1 MOL     -0.647725
     85 O15        -2.4550   -5.1790   -1.1760 oh        1 MOL     -0.626397
     86 H35        -3.7930   -3.3360    0.7630 hn        1 MOL      0.297692
     87 H36        -2.0600   -5.2170    2.1340 h1        1 MOL      0.143067
     88 H37        -0.8320   -5.6300    0.0100 h1        1 MOL     -0.014204
     89 H38        -3.1730   -4.6280   -0.8460 ho        1 MOL      0.429202
     90 H39        -3.4700   -7.0790    0.4880 hc        1 MOL      0.174329
     91 H40        -1.9940   -7.6520   -0.3890 hc        1 MOL      0.174329
     92 H41        -2.0490   -7.3770    1.4280 hc        1 MOL      0.174329
     93 N9         -0.2090   -3.7940    1.9360 n         1 MOL     -0.517111
     94 C29         0.9830   -2.9480    2.0980 c3        1 MOL     -0.010896
     95 C30         2.2180   -3.5640    1.4040 c         1 MOL      0.496983
     96 O16         2.4530   -4.7630    1.4570 o         1 MOL     -0.559917
     97 C31         1.1940   -2.6380    3.6000 c3        1 MOL      0.123876
     98 C32         0.0080   -1.9140    4.2360 c3        1 MOL      0.173057
     99 C33         2.4690   -1.7270    3.6700 c3        1 MOL     -0.481889
    100 C34        -0.0670   -2.0590    5.7170 c3        1 MOL     -0.350259
    101 H42        -0.0990   -4.6950    2.3760 hn        1 MOL      0.267696
    102 H43         0.8210   -1.9870    1.6090 h1        1 MOL      0.112696
    103 H44         1.2430   -3.5810    4.1430 hc        1 MOL      0.043877
    104 H45        -0.9190   -2.3340    3.8330 hc        1 MOL      0.007065
    105 H46         0.0530   -0.8780    3.9080 hc        1 MOL      0.007065
    106 H47         2.4210   -0.8340    3.0400 hc        1 MOL      0.100795
    107 H48         2.5280   -1.4430    4.7230 hc        1 MOL      0.100795
    108 H49         3.3690   -2.3170    3.4610 hc        1 MOL      0.100795
    109 H50        -0.8740   -1.4010    6.0400 hc        1 MOL      0.079019
    110 H51        -0.1270   -3.0980    6.0260 hc        1 MOL      0.079019
    111 H52         0.7890   -1.6930    6.2740 hc        1 MOL      0.079019
    112 N10         3.0140   -2.7540    0.7000 n         1 MOL     -0.004624
    113 C35         4.0350   -3.1180   -0.3510 c3        1 MOL     -0.386504
    114 C36         5.3350   -2.5310   -0.0510 c         1 MOL      0.546449
    115 O17         5.4190   -1.5580    0.7380 o         1 MOL     -0.503711
    116 C37         3.6070   -2.6180   -1.7320 c3        1 MOL      0.554283
    117 C38         2.4590   -3.3530   -2.3740 c3        1 MOL     -0.457690
    118 O18         3.2720   -1.2990   -1.5380 oh        1 MOL     -0.684868
    119 H53         2.8330   -1.7750    0.8730 hn        1 MOL      0.099126
    120 H54         4.0300   -4.2020   -0.4810 h1        1 MOL      0.128201
    121 H55         4.4820   -2.7040   -2.3700 h1        1 MOL     -0.042627
    122 H56         2.3290   -1.2310   -1.3830 ho        1 MOL      0.415648
    123 H57         1.7650   -2.6940   -2.9000 hc        1 MOL      0.113204
    124 H58         2.7810   -4.1570   -3.0350 hc        1 MOL      0.113204
    125 H59         1.8850   -3.7870   -1.5520 hc        1 MOL      0.113204
    126 N11         6.4420   -2.9280   -0.7080 n         1 MOL     -0.263523
    127 C39         7.7860   -2.3480   -0.4940 c3        1 MOL     -0.322441
    128 C40         7.8900   -0.8990   -0.8140 c         1 MOL      0.629923
    129 O19         8.5720   -0.1830   -0.0750 o         1 MOL     -0.536650
    130 C41         8.8790   -3.0750   -1.2300 c3        1 MOL      0.411666
    131 C42         9.1430   -4.5330   -0.9190 c3        1 MOL     -0.397740
    132 O20         8.4560   -3.0290   -2.5360 oh        1 MOL     -0.644046
    133 H60         6.3640   -3.6200   -1.4460 hn        1 MOL      0.271957
    134 H61         7.9640   -2.3440    0.5880 h1        1 MOL      0.181171
    135 H62         9.7960   -2.4960   -1.1600 h1        1 MOL      0.013474
    136 H63         9.2260   -3.1870   -3.0790 ho        1 MOL      0.414564
    137 H64         9.4290   -4.4660    0.1240 hc        1 MOL      0.109117
    138 H65         8.1720   -5.0230   -1.0290 hc        1 MOL      0.109117
    139 H66         9.8500   -4.9450   -1.6470 hc        1 MOL      0.109117
    140 N12         7.0550   -0.3670   -1.7270 n         1 MOL     -0.529624
    141 C43         6.8900    1.1060   -1.9030 c3        1 MOL      0.097707
    142 C44         6.2020    1.7420   -0.6680 c         1 MOL      0.373380
    143 O21         6.7230    2.6990   -0.1370 o         1 MOL     -0.514989
    144 C45         6.0940    1.4380   -3.1530 c3        1 MOL      0.108364
    145 C46         6.1080    2.9130   -3.6390 c3        1 MOL     -0.168368
    146 C47         5.0030    3.6900   -3.1010 c3        1 MOL     -0.036449
    147 C48         3.6280    3.3070   -3.5660 c3        1 MOL     -0.021643
    148 N13         2.6290    4.3800   -3.3730 n4        1 MOL     -0.262088
    149 H67         6.3530   -0.9630   -2.1250 hn        1 MOL      0.302294
    150 H68         7.8470    1.6170   -2.0270 h1        1 MOL      0.079503
    151 H69         5.1010    1.0020   -3.1660 hc        1 MOL     -0.016148
    152 H70         6.5850    0.8580   -3.9330 hc        1 MOL     -0.016148
    153 H71         5.9190    2.9960   -4.7100 hc        1 MOL      0.069347
    154 H72         7.0350    3.4180   -3.3710 hc        1 MOL      0.069347
    155 H73         5.2060    4.7460   -3.2900 hc        1 MOL      0.035784
    156 H74         5.0530    3.7290   -2.0190 hc        1 MOL      0.035784
    157 H75         3.3140    2.4170   -3.0350 hx        1 MOL      0.094322
    158 H76         3.6040    3.0820   -4.6320 hx        1 MOL      0.094322
    159 H77         3.0410    5.2400   -3.7200 hn        1 MOL      0.299147
    160 H78         1.8000    4.2990   -3.9330 hn        1 MOL      0.299147
    161 H79         2.3380    4.5690   -2.4210 hn        1 MOL      0.299147
    162 N14         5.0630    1.2290   -0.2630 n         1 MOL      0.220735
    163 C49         4.2870    1.8570    0.7640 c3        1 MOL     -0.428295
    164 C50         4.9820    1.8940    2.1980 c         1 MOL      0.477961
    165 O22         4.8590    2.8910    2.9000 o         1 MOL     -0.543818
    166 C51         2.9800    1.1440    0.8580 c3        1 MOL     -0.106681
    167 C52         2.0340    1.6570   -0.2950 c3        1 MOL     -0.366749
    168 C53         0.8300    0.7340   -0.4340 c         1 MOL      0.899362
    169 O23        -0.2900    1.1470   -0.5770 o         1 MOL     -0.828240
    170 O24         0.9310   -0.5150   -0.5040 o         1 MOL     -0.828240
    171 H80         4.8720    0.2580   -0.4550 hn        1 MOL      0.004351
    172 H81         4.0980    2.8890    0.4740 h1        1 MOL      0.138751
    173 H82         2.5760    1.4250    1.8360 hc        1 MOL      0.160324
    174 H83         3.0900    0.0510    0.8600 hc        1 MOL      0.160324
    175 H84         2.5370    1.6200   -1.2520 hc        1 MOL      0.111980
    176 H85         1.8190    2.6790    0.0140 hc        1 MOL      0.111980
    177 N15         5.8970    0.9490    2.5210 n         1 MOL     -0.151401
    178 C54         6.9180    0.8980    3.5500 c3        1 MOL     -0.238476
    179 H86         7.2590    1.9080    3.7740 h1        1 MOL      0.103676
    180 H87         6.5030    0.4470    4.4520 h1        1 MOL      0.103676
    181 H88         7.7600    0.3010    3.1980 h1        1 MOL      0.103676
    182 H89         6.0200    0.2540    1.7930 hn        1 MOL      0.205199
    183 Ca1        -1.5790   -0.8150   -1.5210 Ca        1 MOL      1.845941
    184 O25        -0.9200   -3.3100   -2.4870 oh        1 MOL     -0.855685
    185 H90        -1.4090   -4.0600   -2.1410 ho        1 MOL      0.407937
    186 H91        -0.6210   -3.6100   -3.3480 ho        1 MOL      0.407937
    187 O26        -0.6350   -1.0950   -4.0640 oh        1 MOL     -0.855685
    188 H92        -0.8650   -0.4460   -4.7230 ho        1 MOL      0.407937
    189 H93        -0.3070   -1.8460   -4.5610 ho        1 MOL      0.407937
@<TRIPOS>BOND
     1    1    2 1   
     2    1    4 1   
     3    1    5 1   
     4    1    6 1   
     5    2    3 2   
     6    2    7 1   
     7    7    8 1   
     8    7   15 1   
     9    8    9 1   
    10    8   11 1   
    11    8   16 1   
    12    9   10 2   
    13    9   19 1   
    14   11   12 1   
    15   11   17 1   
    16   11   18 1   
    17   12   13 1   
    18   12   14 1   
    19   19   20 1   
    20   19   28 1   
    21   20   21 1   
    22   20   23 1   
    23   20   29 1   
    24   21   22 2   
    25   21   41 1   
    26   23   24 1   
    27   23   30 1   
    28   23   31 1   
    29   24   25 1   
    30   24   32 1   
    31   24   33 1   
    32   25   26 1   
    33   25   34 1   
    34   25   35 1   
    35   26   27 1   
    36   26   36 1   
    37   26   37 1   
    38   27   38 1   
    39   27   39 1   
    40   27   40 1   
    41   41   42 1   
    42   41   49 1   
    43   42   43 1   
    44   42   45 1   
    45   42   50 1   
    46   43   44 2   
    47   43   53 1   
    48   45   46 1   
    49   45   51 1   
    50   45   52 1   
    51   46   47 1   
    52   46   48 1   
    53   53   54 1   
    54   53   57 1   
    55   54   55 1   
    56   54   58 1   
    57   54   59 1   
    58   55   56 2   
    59   55   60 1   
    60   60   61 1   
    61   60   68 1   
    62   61   62 1   
    63   61   64 1   
    64   61   69 1   
    65   62   63 2   
    66   62   72 1   
    67   64   65 1   
    68   64   70 1   
    69   64   71 1   
    70   65   66 1   
    71   65   67 1   
    72   72   73 1   
    73   72   76 1   
    74   73   74 1   
    75   73   77 1   
    76   73   78 1   
    77   74   75 2   
    78   74   79 1   
    79   79   80 1   
    80   79   86 1   
    81   80   81 1   
    82   80   83 1   
    83   80   87 1   
    84   81   82 2   
    85   81   93 1   
    86   83   84 1   
    87   83   85 1   
    88   83   88 1   
    89   84   90 1   
    90   84   91 1   
    91   84   92 1   
    92   85   89 1   
    93   93   94 1   
    94   93  101 1   
    95   94   95 1   
    96   94   97 1   
    97   94  102 1   
    98   95   96 2   
    99   95  112 1   
   100   97   98 1   
   101   97   99 1   
   102   97  103 1   
   103   98  100 1   
   104   98  104 1   
   105   98  105 1   
   106   99  106 1   
   107   99  107 1   
   108   99  108 1   
   109  100  109 1   
   110  100  110 1   
   111  100  111 1   
   112  112  113 1   
   113  112  119 1   
   114  113  114 1   
   115  113  116 1   
   116  113  120 1   
   117  114  115 2   
   118  114  126 1   
   119  116  117 1   
   120  116  118 1   
   121  116  121 1   
   122  117  123 1   
   123  117  124 1   
   124  117  125 1   
   125  118  122 1   
   126  126  127 1   
   127  126  133 1   
   128  127  128 1   
   129  127  130 1   
   130  127  134 1   
   131  128  129 2   
   132  128  140 1   
   133  130  131 1   
   134  130  132 1   
   135  130  135 1   
   136  131  137 1   
   137  131  138 1   
   138  131  139 1   
   139  132  136 1   
   140  140  141 1   
   141  140  149 1   
   142  141  142 1   
   143  141  144 1   
   144  141  150 1   
   145  142  143 2   
   146  142  162 1   
   147  144  145 1   
   148  144  151 1   
   149  144  152 1   
   150  145  146 1   
   151  145  153 1   
   152  145  154 1   
   153  146  147 1   
   154  146  155 1   
   155  146  156 1   
   156  147  148 1   
   157  147  157 1   
   158  147  158 1   
   159  148  159 1   
   160  148  160 1   
   161  148  161 1   
   162  162  163 1   
   163  162  171 1   
   164  163  164 1   
   165  163  166 1   
   166  163  172 1   
   167  164  165 2   
   168  164  177 1   
   169  166  167 1   
   170  166  173 1   
   171  166  174 1   
   172  167  168 1   
   173  167  175 1   
   174  167  176 1   
   175  168  169 1   
   176  168  170 1   
   177  177  178 1   
   178  177  182 1   
   179  178  179 1   
   180  178  180 1   
   181  178  181 1   
   182  184  185 1   
   183  184  186 1   
   184  187  188 1   
   185  187  189 1   
@<TRIPOS>SUBSTRUCTURE
     1 MOL         1 TEMP              0 ****  ****    0 ROOT
