@<TRIPOS>MOLECULE
MOL
  172   171     1     0     0
SMALL
resp


@<TRIPOS>ATOM
      1 C1         -0.3860   -3.8310    6.0240 c3        1 MOL     -0.323401
      2 C2          0.0600   -3.8140    4.5810 c         1 MOL      0.664712
      3 O1         -0.6740   -4.2600    3.6740 o         1 MOL     -0.557163
      4 H1         -0.7560   -4.8240    6.2770 hc        1 MOL      0.077563
      5 H2          0.4580   -3.5830    6.6680 hc        1 MOL      0.077563
      6 H3         -1.1810   -3.1000    6.1680 hc        1 MOL      0.077563
      7 N1          1.2620   -3.3330    4.2940 n         1 MOL     -0.475084
      8 C3          1.9110   -3.3150    2.9950 c3        1 MOL      0.050411
      9 C4          2.1720   -4.6190    2.1880 c         1 MOL      0.549339
     10 O2          2.3720   -5.6990    2.7250 o         1 MOL     -0.581178
     11 C5          3.2540   -2.5630    3.1630 c3        1 MOL     -0.171306
     12 C6          3.9810   -2.2600    1.8480 c         1 MOL      0.643704
     13 O3          3.2910   -1.8430    0.8790 o         1 MOL     -0.666013
     14 O4          5.2130   -2.4070    1.8030 o         1 MOL     -0.666013
     15 H4          1.7390   -2.8330    5.0320 hn        1 MOL      0.282110
     16 H5          1.2680   -2.7330    2.3370 h1        1 MOL      0.072353
     17 H6          3.8710   -3.2050    3.7870 hc        1 MOL      0.017482
     18 H7          3.2250   -1.5690    3.6140 hc        1 MOL      0.017482
     19 N2          2.1430   -4.5290    0.8810 n         1 MOL     -0.357960
     20 C7          2.4640   -5.5600   -0.1200 c3        1 MOL      0.362830
     21 C8          3.1850   -5.0290   -1.3940 c         1 MOL      0.398108
     22 O5          2.9640   -5.6880   -2.4120 o         1 MOL     -0.544748
     23 C9          1.1660   -6.3770   -0.3410 c3        1 MOL     -0.297320
     24 H8          1.8560   -3.6240    0.5270 hn        1 MOL      0.232399
     25 H9          3.1330   -6.2640    0.3650 h1        1 MOL     -0.020243
     26 H10         0.4570   -5.8220   -0.9530 hc        1 MOL      0.069110
     27 H11         1.3410   -7.3320   -0.8140 hc        1 MOL      0.069110
     28 H12         0.6380   -6.4310    0.6170 hc        1 MOL      0.069110
     29 N3          3.9730   -3.9610   -1.3850 n         1 MOL     -0.255996
     30 C10         4.9360   -3.5690   -2.4900 c3        1 MOL      0.197429
     31 C11         6.2840   -3.0310   -1.9350 c         1 MOL      0.289299
     32 O6          7.3440   -3.3130   -2.5100 o         1 MOL     -0.530231
     33 C12         4.1310   -2.6360   -3.4200 c3        1 MOL     -0.218357
     34 C13         3.4070   -1.5860   -2.6160 c         1 MOL      0.625225
     35 O7          2.1700   -1.5180   -2.6650 o         1 MOL     -0.641744
     36 O8          4.0600   -0.8310   -1.8930 o         1 MOL     -0.641744
     37 H13         4.1720   -3.5320   -0.4950 hn        1 MOL      0.078342
     38 H14         5.2050   -4.4420   -3.0820 h1        1 MOL      0.028893
     39 H15         3.3250   -3.1700   -3.9200 hc        1 MOL      0.058857
     40 H16         4.8210   -2.1730   -4.1170 hc        1 MOL      0.058857
     41 N4          6.3390   -2.2090   -0.8500 n         1 MOL     -0.026576
     42 C14         7.6020   -1.6020   -0.3740 c3        1 MOL     -0.296789
     43 C15         7.6680   -0.1320   -0.8230 c         1 MOL      0.470202
     44 O9          8.8270    0.3910   -0.8960 o         1 MOL     -0.585156
     45 H17         5.5000   -2.0720   -0.3080 hn        1 MOL      0.188825
     46 H18         8.4380   -2.0620   -0.8920 h1        1 MOL      0.148507
     47 H19         7.6770   -1.7500    0.7000 h1        1 MOL      0.148507
     48 N5          6.5720    0.5710   -1.2800 n         1 MOL      0.008378
     49 C16         6.4970    1.8690   -1.9000 c3        1 MOL     -0.229175
     50 C17         6.4350    3.0050   -0.9280 c         1 MOL      0.554136
     51 O10         6.5450    4.1830   -1.2910 o         1 MOL     -0.548771
     52 C18         5.3770    1.8610   -3.0360 c3        1 MOL      0.071926
     53 C19         3.9570    1.8720   -2.5450 c         1 MOL      0.556986
     54 N6          2.8770    1.8050   -3.3260 n         1 MOL     -0.700006
     55 O11         3.7260    1.9560   -1.3620 o         1 MOL     -0.401296
     56 H20         5.7030    0.0650   -1.1920 hn        1 MOL     -0.026498
     57 H21         7.4780    2.0160   -2.3480 h1        1 MOL      0.127045
     58 H22         5.4750    0.9170   -3.5720 hc        1 MOL      0.007747
     59 H23         5.5080    2.6260   -3.7970 hc        1 MOL      0.007747
     60 H24         2.9910    1.3950   -4.2360 hn        1 MOL      0.332241
     61 H25         1.9770    1.7400   -2.8600 hn        1 MOL      0.332241
     62 N7          6.1930    2.7400    0.3260 n         1 MOL     -0.303694
     63 C20         6.1490    3.6760    1.4100 c3        1 MOL     -0.075736
     64 C21         4.8890    4.6510    1.4180 c         1 MOL      0.456400
     65 O12         5.0490    5.7490    1.8950 o         1 MOL     -0.538614
     66 H26         6.0820    1.7700    0.6050 hn        1 MOL      0.183858
     67 H27         7.0090    4.3490    1.4230 h1        1 MOL      0.070170
     68 H28         6.0860    3.2520    2.4100 h1        1 MOL      0.070170
     69 N8          3.7730    4.1200    0.9640 n         1 MOL      0.014916
     70 C22         2.4740    4.7850    0.8850 c3        1 MOL     -0.636447
     71 C23         1.3810    3.7100    1.0520 c         1 MOL      0.815840
     72 O13         1.5350    2.5910    0.4970 o         1 MOL     -0.586978
     73 C24         2.4180    5.5850   -0.4110 c3        1 MOL      0.565310
     74 C25         3.4030    6.7770   -0.3860 c3        1 MOL     -0.667694
     75 O14         2.7790    4.9160   -1.6280 oh        1 MOL     -0.573337
     76 H29         3.7790    3.1440    0.7160 hn        1 MOL      0.001182
     77 H30         2.3390    5.5310    1.6680 h1        1 MOL      0.180035
     78 H31         1.3980    5.9270   -0.5690 h1        1 MOL     -0.018691
     79 H32         2.8510    3.9790   -1.4420 ho        1 MOL      0.303940
     80 H33         3.3210    7.2860    0.5810 hc        1 MOL      0.178927
     81 H34         4.4180    6.4620   -0.6270 hc        1 MOL      0.178927
     82 H35         3.1330    7.4170   -1.2260 hc        1 MOL      0.178927
     83 N9          0.2700    4.0490    1.7380 n         1 MOL     -0.455370
     84 C26        -0.9120    3.2080    1.9560 c3        1 MOL     -0.209864
     85 C27        -1.6690    3.2140    0.6080 c         1 MOL      0.472347
     86 O15        -2.0230    4.3020    0.0850 o         1 MOL     -0.571026
     87 C28        -1.7530    3.7340    3.1080 c3        1 MOL      0.337465
     88 C29        -1.0030    3.6580    4.4960 c3        1 MOL      0.009658
     89 C30        -2.9920    2.8490    3.3170 c3        1 MOL     -0.381642
     90 C31        -1.5390    4.6460    5.4820 c3        1 MOL     -0.143847
     91 H36         0.2050    4.9790    2.1190 hn        1 MOL      0.294052
     92 H37        -0.5980    2.1760    2.1090 h1        1 MOL      0.103501
     93 H38        -2.0870    4.7500    2.9060 hc        1 MOL     -0.027632
     94 H39         0.0200    3.9420    4.2490 hc        1 MOL     -0.007770
     95 H40        -1.0890    2.6330    4.8700 hc        1 MOL     -0.007770
     96 H41        -3.5710    3.2550    4.1460 hc        1 MOL      0.079069
     97 H42        -3.6020    2.7380    2.4240 hc        1 MOL      0.079069
     98 H43        -2.6710    1.8430    3.5670 hc        1 MOL      0.079069
     99 H44        -2.6230    4.5460    5.6170 hc        1 MOL      0.028915
    100 H45        -1.1200    4.4760    6.4720 hc        1 MOL      0.028915
    101 H46        -1.3960    5.6500    5.0840 hc        1 MOL      0.028915
    102 N10        -1.8860    2.0070    0.0110 n         1 MOL     -0.216942
    103 C32        -2.7550    1.7750   -1.2160 c3        1 MOL     -0.047931
    104 C33        -4.2320    1.5210   -0.8540 c         1 MOL      0.459492
    105 O16        -4.5800    1.0800    0.2530 o         1 MOL     -0.368555
    106 C34        -2.0780    0.6630   -2.0970 c3        1 MOL     -0.315484
    107 C35        -0.6320    1.1410   -2.6620 c         1 MOL      0.671053
    108 O17         0.3800    1.1580   -1.9400 o         1 MOL     -0.655069
    109 O18        -0.5010    1.3960   -3.8540 o         1 MOL     -0.655069
    110 H47        -1.4710    1.2060    0.4670 hn        1 MOL      0.337217
    111 H48        -2.7590    2.6540   -1.8710 h1        1 MOL      0.103056
    112 H49        -2.7090    0.3440   -2.9350 hc        1 MOL      0.120938
    113 H50        -1.8370   -0.1540   -1.4300 hc        1 MOL      0.120938
    114 N11        -5.1440    1.7020   -1.7780 n         1 MOL     -0.596772
    115 C36        -6.5300    1.1640   -1.5170 c3        1 MOL      0.441548
    116 C37        -6.7270   -0.3610   -1.2000 c         1 MOL      0.191510
    117 O19        -7.2870   -0.6720   -0.1000 o         1 MOL     -0.474608
    118 C38        -7.5100    1.6490   -2.5650 c3        1 MOL     -0.367757
    119 C39        -8.9680    1.4880   -2.1180 ca        1 MOL      0.055393
    120 C40        -9.4950    2.2570   -1.0740 ca        1 MOL     -0.081950
    121 C41        -9.8030    0.5420   -2.7740 ca        1 MOL     -0.081950
    122 C42       -10.8410    2.0950   -0.6800 ca        1 MOL     -0.224228
    123 C43       -11.1760    0.4400   -2.4480 ca        1 MOL     -0.224228
    124 C44       -11.6550    1.1280   -1.3310 ca        1 MOL      0.006882
    125 H51        -4.9430    2.1290   -2.6660 hn        1 MOL      0.323696
    126 H52        -6.8480    1.5690   -0.5560 h1        1 MOL      0.029828
    127 H53        -7.4230    1.1840   -3.5470 hc        1 MOL      0.106256
    128 H54        -7.2180    2.6840   -2.6970 hc        1 MOL      0.106256
    129 H55        -8.8540    2.9570   -0.5570 ha        1 MOL      0.111578
    130 H56        -9.4490   -0.1520   -3.5210 ha        1 MOL      0.111578
    131 H57       -11.2040    2.6480    0.1760 ha        1 MOL      0.135174
    132 H58       -11.8110   -0.2990   -2.9010 ha        1 MOL      0.135174
    133 H59       -12.6730    1.0350   -1.0010 ha        1 MOL      0.074326
    134 N12        -6.0870   -1.2790   -1.9210 n         1 MOL      0.064438
    135 C45        -6.0470   -2.6730   -1.6100 c3        1 MOL     -0.075871
    136 C46        -5.3650   -2.9830   -0.2790 c         1 MOL      0.337591
    137 O20        -5.4420   -4.1160    0.1430 o         1 MOL     -0.515724
    138 C47        -5.2470   -3.2730   -2.7870 c3        1 MOL     -0.033313
    139 C48        -5.2510   -2.3210   -3.9990 c3        1 MOL      0.032321
    140 C49        -5.3890   -1.0150   -3.2230 c3        1 MOL     -0.121885
    141 H60        -7.0480   -3.1160   -1.6230 h1        1 MOL      0.078069
    142 H61        -4.2370   -3.3350   -2.3810 hc        1 MOL      0.037353
    143 H62        -5.4870   -4.2720   -3.1540 hc        1 MOL      0.037353
    144 H63        -4.3390   -2.3970   -4.5920 hc        1 MOL      0.020864
    145 H64        -6.0960   -2.5950   -4.6370 hc        1 MOL      0.020864
    146 H65        -4.3730   -0.6440   -3.0760 h1        1 MOL      0.041866
    147 H66        -6.0160   -0.4200   -3.8900 h1        1 MOL      0.041866
    148 N13        -4.6290   -2.0380    0.3590 n         1 MOL      0.087596
    149 C50        -4.1150   -2.0610    1.7510 c3        1 MOL     -0.108456
    150 C51        -4.9680   -1.3410    2.8700 c         1 MOL      0.489853
    151 O21        -5.2610   -1.8990    3.9060 o         1 MOL     -0.552341
    152 C52        -2.7240   -1.4860    1.6560 c3        1 MOL      0.111799
    153 C53        -1.8000   -2.0660    0.6020 c3        1 MOL      0.000452
    154 C54        -0.4740   -1.4220    0.6010 c         1 MOL      0.506188
    155 O22         0.5000   -1.9780   -0.0100 o         1 MOL     -0.699499
    156 O23        -0.3470   -0.2150    0.9370 o         1 MOL     -0.699499
    157 H67        -4.4950   -1.1310   -0.0660 hn        1 MOL     -0.012175
    158 H68        -3.9960   -3.0920    2.0840 h1        1 MOL      0.075662
    159 H69        -2.2760   -1.6260    2.6420 hc        1 MOL     -0.032714
    160 H70        -2.7850   -0.4240    1.4060 hc        1 MOL     -0.032714
    161 H71        -2.2210   -2.0300   -0.4020 hc        1 MOL      0.025801
    162 H72        -1.7800   -3.1580    0.6910 hc        1 MOL      0.025801
    163 N14        -5.3650   -0.1010    2.6150 n         1 MOL     -0.194977
    164 C55        -6.4540    0.5470    3.4000 c3        1 MOL     -0.205876
    165 H73        -6.4810    0.1220    4.4030 h1        1 MOL      0.086912
    166 H74        -6.2680    1.6190    3.4650 h1        1 MOL      0.086912
    167 H75        -7.4110    0.3740    2.9070 h1        1 MOL      0.086912
    168 H76        -5.1500    0.2350    1.6920 hn        1 MOL      0.161604
    169 Ca1         2.1460    0.0380   -0.3560 Ca        1 MOL      1.667066
    170 O24         3.4230    0.8420    1.9380 oh        1 MOL     -0.806631
    171 H77         4.3130    0.5290    1.8220 ho        1 MOL      0.421076
    172 H78         3.3950    1.1520    2.8470 ho        1 MOL      0.421076
@<TRIPOS>BOND
     1    1    2 1   
     2    1    4 1   
     3    1    5 1   
     4    1    6 1   
     5    2    3 2   
     6    2    7 1   
     7    7    8 1   
     8    7   15 1   
     9    8    9 1   
    10    8   11 1   
    11    8   16 1   
    12    9   10 2   
    13    9   19 1   
    14   11   12 1   
    15   11   17 1   
    16   11   18 1   
    17   12   13 1   
    18   12   14 1   
    19   19   20 1   
    20   19   24 1   
    21   20   21 1   
    22   20   23 1   
    23   20   25 1   
    24   21   22 2   
    25   21   29 1   
    26   23   26 1   
    27   23   27 1   
    28   23   28 1   
    29   29   30 1   
    30   29   37 1   
    31   30   31 1   
    32   30   33 1   
    33   30   38 1   
    34   31   32 2   
    35   31   41 1   
    36   33   34 1   
    37   33   39 1   
    38   33   40 1   
    39   34   35 1   
    40   34   36 1   
    41   41   42 1   
    42   41   45 1   
    43   42   43 1   
    44   42   46 1   
    45   42   47 1   
    46   43   44 2   
    47   43   48 1   
    48   48   49 1   
    49   48   56 1   
    50   49   50 1   
    51   49   52 1   
    52   49   57 1   
    53   50   51 2   
    54   50   62 1   
    55   52   53 1   
    56   52   58 1   
    57   52   59 1   
    58   53   54 1   
    59   53   55 2   
    60   54   60 1   
    61   54   61 1   
    62   62   63 1   
    63   62   66 1   
    64   63   64 1   
    65   63   67 1   
    66   63   68 1   
    67   64   65 2   
    68   64   69 1   
    69   69   70 1   
    70   69   76 1   
    71   70   71 1   
    72   70   73 1   
    73   70   77 1   
    74   71   72 2   
    75   71   83 1   
    76   73   74 1   
    77   73   75 1   
    78   73   78 1   
    79   74   80 1   
    80   74   81 1   
    81   74   82 1   
    82   75   79 1   
    83   83   84 1   
    84   83   91 1   
    85   84   85 1   
    86   84   87 1   
    87   84   92 1   
    88   85   86 2   
    89   85  102 1   
    90   87   88 1   
    91   87   89 1   
    92   87   93 1   
    93   88   90 1   
    94   88   94 1   
    95   88   95 1   
    96   89   96 1   
    97   89   97 1   
    98   89   98 1   
    99   90   99 1   
   100   90  100 1   
   101   90  101 1   
   102  102  103 1   
   103  102  110 1   
   104  103  104 1   
   105  103  106 1   
   106  103  111 1   
   107  104  105 2   
   108  104  114 1   
   109  106  107 1   
   110  106  112 1   
   111  106  113 1   
   112  107  108 1   
   113  107  109 1   
   114  114  115 1   
   115  114  125 1   
   116  115  116 1   
   117  115  118 1   
   118  115  126 1   
   119  116  117 2   
   120  116  134 1   
   121  118  119 1   
   122  118  127 1   
   123  118  128 1   
   124  119  120 ar  
   125  119  121 ar  
   126  120  122 ar  
   127  120  129 1   
   128  121  123 ar  
   129  121  130 1   
   130  122  124 ar  
   131  122  131 1   
   132  123  124 ar  
   133  123  132 1   
   134  124  133 1   
   135  134  135 1   
   136  134  140 1   
   137  135  136 1   
   138  135  138 1   
   139  135  141 1   
   140  136  137 2   
   141  136  148 1   
   142  138  139 1   
   143  138  142 1   
   144  138  143 1   
   145  139  140 1   
   146  139  144 1   
   147  139  145 1   
   148  140  146 1   
   149  140  147 1   
   150  148  149 1   
   151  148  157 1   
   152  149  150 1   
   153  149  152 1   
   154  149  158 1   
   155  150  151 2   
   156  150  163 1   
   157  152  153 1   
   158  152  159 1   
   159  152  160 1   
   160  153  154 1   
   161  153  161 1   
   162  153  162 1   
   163  154  155 1   
   164  154  156 1   
   165  163  164 1   
   166  163  168 1   
   167  164  165 1   
   168  164  166 1   
   169  164  167 1   
   170  170  171 1   
   171  170  172 1   
@<TRIPOS>SUBSTRUCTURE
     1 MOL         1 TEMP              0 ****  ****    0 ROOT
