@<TRIPOS>MOLECULE
MOL
  189   185     1     0     0
SMALL
resp


@<TRIPOS>ATOM
      1 C1          0.5460    3.4040   -5.1050 c3        1 MOL     -0.300118
      2 C2          0.8920    2.7910   -3.7370 c         1 MOL      0.655821
      3 O1         -0.0240    2.7480   -2.8850 o         1 MOL     -0.563783
      4 H1          1.3970    3.9780   -5.4710 hc        1 MOL      0.079393
      5 H2          0.3140    2.6080   -5.8130 hc        1 MOL      0.079393
      6 H3         -0.3170    4.0610   -5.0020 hc        1 MOL      0.079393
      7 N1          2.1790    2.4050   -3.4730 n         1 MOL     -0.663027
      8 C3          2.6820    1.8750   -2.2240 c3        1 MOL      0.258563
      9 C4          3.3760    2.9270   -1.3490 c         1 MOL      0.342642
     10 O2          4.6130    3.1300   -1.4010 o         1 MOL     -0.492830
     11 C5          3.5760    0.6710   -2.7100 c3        1 MOL     -0.216811
     12 C6          4.0900   -0.0950   -1.4410 c         1 MOL      0.741123
     13 O3          5.0180   -0.9300   -1.5140 o         1 MOL     -0.694796
     14 O4          3.5100    0.1390   -0.3810 o         1 MOL     -0.694796
     15 H4          2.9410    2.4430   -4.1240 hn        1 MOL      0.357837
     16 H5          1.8790    1.5310   -1.5630 h1        1 MOL      0.011962
     17 H6          4.3690    1.0290   -3.3730 hc        1 MOL      0.050293
     18 H7          2.9120   -0.0230   -3.2190 hc        1 MOL      0.050293
     19 N2          2.5630    3.7060   -0.6260 n         1 MOL     -0.133822
     20 C7          2.9260    5.0510   -0.1300 c3        1 MOL     -0.283554
     21 C8          3.8160    4.9920    1.1310 c         1 MOL      0.532935
     22 O5          4.3920    5.9990    1.5410 o         1 MOL     -0.558418
     23 C9          1.7130    5.9850   -0.0850 c3        1 MOL     -0.040907
     24 C10         1.0750    6.0780   -1.4590 c3        1 MOL      0.061178
     25 C11        -0.0200    7.1640   -1.4420 c3        1 MOL     -0.074373
     26 C12        -0.3260    7.5170   -2.9110 c3        1 MOL      0.110020
     27 N3         -1.4020    8.4760   -3.0490 n4        1 MOL     -0.333056
     28 H8          1.5820    3.4570   -0.7380 hn        1 MOL      0.250659
     29 H9          3.5620    5.4470   -0.9180 h1        1 MOL      0.131341
     30 H10         2.0140    6.9530    0.3250 hc        1 MOL      0.054994
     31 H11         0.9870    5.5950    0.6280 hc        1 MOL      0.054994
     32 H12         0.5710    5.1530   -1.7390 hc        1 MOL      0.017125
     33 H13         1.7750    6.1950   -2.2960 hc        1 MOL      0.017125
     34 H14         0.3730    8.0400   -0.9340 hc        1 MOL      0.028043
     35 H15        -0.9100    6.9120   -0.8630 hc        1 MOL      0.028043
     36 H16        -0.5410    6.5660   -3.4170 hx        1 MOL      0.053864
     37 H17         0.6210    7.7750   -3.3800 hx        1 MOL      0.053864
     38 H18        -1.0900    9.3620   -2.6730 hn        1 MOL      0.320090
     39 H19        -1.6650    8.6920   -3.9980 hn        1 MOL      0.320090
     40 H20        -2.1730    8.2230   -2.4440 hn        1 MOL      0.320090
     41 N4          3.7270    3.9170    1.8870 n         1 MOL     -0.277862
     42 C13         4.6420    3.5250    2.9000 c3        1 MOL      0.143707
     43 C14         5.8500    2.8130    2.3570 c         1 MOL      0.397486
     44 O6          6.9680    2.8760    2.8290 o         1 MOL     -0.555051
     45 C15         3.8740    2.7700    3.9630 c3        1 MOL     -0.315333
     46 C16         2.7670    1.9180    3.5050 c         1 MOL      0.809614
     47 O7          1.6800    1.9730    4.1200 o         1 MOL     -0.718424
     48 O8          2.9940    1.2640    2.4950 o         1 MOL     -0.718424
     49 H21         3.0970    3.1640    1.6470 hn        1 MOL      0.240104
     50 H22         5.0200    4.4330    3.3610 h1        1 MOL      0.062438
     51 H23         3.4260    3.5970    4.5160 hc        1 MOL      0.075995
     52 H24         4.4620    2.2560    4.7180 hc        1 MOL      0.075995
     53 N5          5.6730    2.1150    1.2260 n         1 MOL      0.102616
     54 C17         6.6620    1.4940    0.3380 c3        1 MOL     -0.402511
     55 C18         7.1570    0.1040    0.7930 c         1 MOL      0.709027
     56 O9          8.2480   -0.3250    0.4830 o         1 MOL     -0.590140
     57 H25         4.7080    1.8460    1.0960 hn        1 MOL     -0.162948
     58 H26         7.4810    2.2180    0.3630 h1        1 MOL      0.157296
     59 H27         6.2600    1.3720   -0.6590 h1        1 MOL      0.157296
     60 N6          6.2850   -0.5680    1.5430 n         1 MOL     -0.493323
     61 C19         6.5290   -1.9870    2.0510 c3        1 MOL      0.091809
     62 C20         6.6570   -3.0930    0.9960 c         1 MOL      0.370157
     63 O10         7.1530   -4.2020    1.2440 o         1 MOL     -0.568041
     64 C21         5.5650   -2.3710    3.1490 c3        1 MOL     -0.364295
     65 C22         4.1030   -2.2800    2.7300 c         1 MOL      0.919916
     66 O11         3.7730   -2.5580    1.5780 o         1 MOL     -0.774245
     67 O12         3.3190   -1.7370    3.4790 o         1 MOL     -0.774245
     68 H28         5.3330   -0.2740    1.4680 hn        1 MOL      0.351597
     69 H29         7.4840   -1.8800    2.5690 h1        1 MOL      0.110586
     70 H30         5.6660   -1.6690    3.9760 hc        1 MOL      0.089224
     71 H31         5.8720   -3.3950    3.3700 hc        1 MOL      0.089224
     72 N7          6.3450   -2.8620   -0.2160 n         1 MOL     -0.094762
     73 C23         6.2350   -3.8070   -1.3380 c3        1 MOL     -0.180103
     74 C24         4.8730   -4.3640   -1.7140 c         1 MOL      0.557920
     75 O13         4.8110   -5.1890   -2.5990 o         1 MOL     -0.576832
     76 H32         5.8650   -1.9830   -0.3370 hn        1 MOL      0.206644
     77 H33         6.9580   -4.6060   -1.2090 h1        1 MOL      0.101701
     78 H34         6.5610   -3.3530   -2.2660 h1        1 MOL      0.101701
     79 N8          3.8030   -3.9890   -1.0340 n         1 MOL     -0.133418
     80 C25         2.4740   -4.4660   -1.3470 c3        1 MOL     -0.330717
     81 C26         1.4160   -3.4490   -1.2560 c         1 MOL      0.786084
     82 O14         1.4100   -2.6250   -0.2970 o         1 MOL     -0.668991
     83 C27         2.0240   -5.5620   -0.4010 c3        1 MOL      0.422845
     84 C28         2.5740   -6.9420   -0.5420 c3        1 MOL     -0.537136
     85 O15         2.2760   -5.2170    0.9550 oh        1 MOL     -0.573166
     86 H35         3.8540   -3.2000   -0.3970 hn        1 MOL      0.159406
     87 H36         2.4550   -4.9040   -2.3390 h1        1 MOL      0.116450
     88 H37         0.9350   -5.6650   -0.4990 h1        1 MOL      0.010113
     89 H38         2.7350   -4.3820    0.9570 ho        1 MOL      0.360015
     90 H39         3.5720   -7.0600   -0.1270 hc        1 MOL      0.142360
     91 H40         1.9200   -7.6290    0.0040 hc        1 MOL      0.142360
     92 H41         2.6470   -7.2020   -1.6060 hc        1 MOL      0.142360
     93 N9          0.5210   -3.4870   -2.2270 n         1 MOL     -0.591667
     94 C29        -0.6350   -2.6470   -2.2320 c3        1 MOL      0.033027
     95 C30        -1.7670   -3.3220   -1.3990 c         1 MOL      0.413460
     96 O16        -2.2820   -4.4180   -1.6840 o         1 MOL     -0.544057
     97 C31        -1.0190   -2.4090   -3.6930 c3        1 MOL      0.112945
     98 C32        -0.0230   -1.5110   -4.4240 c3        1 MOL      0.032962
     99 C33        -2.4080   -1.7980   -3.9560 c3        1 MOL     -0.269240
    100 C34         0.0360   -1.5270   -5.9280 c3        1 MOL     -0.248779
    101 H42         0.6820   -4.1430   -2.9830 hn        1 MOL      0.321202
    102 H43        -0.3770   -1.7090   -1.7270 h1        1 MOL      0.075407
    103 H44        -0.9800   -3.3720   -4.2030 hc        1 MOL      0.029666
    104 H45         0.9710   -1.8190   -4.1030 hc        1 MOL      0.030711
    105 H46        -0.1020   -0.4940   -4.0430 hc        1 MOL      0.030711
    106 H47        -2.5070   -0.8250   -3.4880 hc        1 MOL      0.055982
    107 H48        -2.5860   -1.5240   -4.9970 hc        1 MOL      0.055982
    108 H49        -3.2540   -2.4210   -3.6800 hc        1 MOL      0.055982
    109 H50         0.0270   -2.5150   -6.3900 hc        1 MOL      0.062347
    110 H51        -0.8670   -1.0180   -6.2590 hc        1 MOL      0.062347
    111 H52         0.8740   -0.9670   -6.3700 hc        1 MOL      0.062347
    112 N10        -2.2610   -2.6230   -0.3790 n         1 MOL     -0.028348
    113 C35        -3.5000   -2.8490    0.4210 c3        1 MOL     -0.147842
    114 C36        -4.8690   -2.6010   -0.2290 c         1 MOL      0.453493
    115 O17        -4.9220   -1.9910   -1.2790 o         1 MOL     -0.373642
    116 C37        -3.4390   -1.9640    1.7460 c3        1 MOL      0.178285
    117 C38        -2.3100   -2.3540    2.6910 c3        1 MOL     -0.199875
    118 O18        -3.3160   -0.6060    1.4930 oh        1 MOL     -0.430959
    119 H53        -1.8040   -1.7320   -0.2750 hn        1 MOL      0.064497
    120 H54        -3.4770   -3.8790    0.7620 h1        1 MOL      0.087316
    121 H55        -4.3310   -2.1680    2.3370 h1        1 MOL      0.013741
    122 H56        -2.3650   -0.4570    1.5330 ho        1 MOL      0.293771
    123 H57        -2.3680   -1.8580    3.6620 hc        1 MOL      0.056027
    124 H58        -2.4680   -3.4070    2.9380 hc        1 MOL      0.056027
    125 H59        -1.3320   -2.3360    2.2100 hc        1 MOL      0.056027
    126 N11        -5.9650   -2.9300    0.3930 n         1 MOL     -0.343071
    127 C39        -7.3090   -2.4920   -0.0730 c3        1 MOL     -0.159053
    128 C40        -7.4840   -0.9060   -0.2130 c         1 MOL      0.472887
    129 O19        -7.9930   -0.5260   -1.2080 o         1 MOL     -0.470468
    130 C41        -8.4640   -2.9430    0.8690 c3        1 MOL      0.189053
    131 C42        -8.5780   -4.4860    0.8090 c3        1 MOL     -0.336193
    132 O20        -8.0800   -2.6470    2.1460 oh        1 MOL     -0.639225
    133 H60        -5.8710   -3.4180    1.2660 hn        1 MOL      0.281343
    134 H61        -7.3060   -2.9510   -1.0680 h1        1 MOL      0.159682
    135 H62        -9.3760   -2.4480    0.5340 h1        1 MOL      0.079083
    136 H63        -8.6750   -3.1900    2.6800 ho        1 MOL      0.424500
    137 H64        -8.7350   -4.6570   -0.2590 hc        1 MOL      0.102226
    138 H65        -7.6690   -4.9350    1.1850 hc        1 MOL      0.102226
    139 H66        -9.4640   -4.9210    1.2750 hc        1 MOL      0.102226
    140 N12        -6.9350   -0.1550    0.7570 n         1 MOL     -0.356073
    141 C43        -6.9330    1.3290    0.8340 c3        1 MOL      0.046257
    142 C44        -5.9920    1.8610   -0.2500 c         1 MOL      0.403148
    143 O21        -6.4220    2.7490   -0.9540 o         1 MOL     -0.524011
    144 C45        -6.3820    1.7500    2.2480 c3        1 MOL     -0.114644
    145 C46        -7.4650    1.5190    3.3630 c3        1 MOL      0.015559
    146 C47        -6.7770    1.8150    4.7670 c3        1 MOL      0.036432
    147 C48        -7.7780    1.6760    5.8970 c3        1 MOL     -0.015128
    148 N13        -8.5470    2.9260    5.9580 n4        1 MOL     -0.369572
    149 H67        -6.5380   -0.6390    1.5470 hn        1 MOL      0.369009
    150 H68        -7.9060    1.7870    0.6770 h1        1 MOL      0.090643
    151 H69        -6.1760    2.8210    2.2890 hc        1 MOL      0.038782
    152 H70        -5.5160    1.1220    2.3970 hc        1 MOL      0.038782
    153 H71        -7.6400    0.4550    3.2580 hc        1 MOL     -0.000953
    154 H72        -8.3330    2.1420    3.1220 hc        1 MOL     -0.000953
    155 H73        -6.3350    2.8060    4.8600 hc        1 MOL      0.042286
    156 H74        -5.9540    1.1340    4.9500 hc        1 MOL      0.042286
    157 H75        -7.2730    1.6390    6.8620 hx        1 MOL      0.087220
    158 H76        -8.3730    0.7810    5.6700 hx        1 MOL      0.087220
    159 H77        -7.8930    3.6150    5.6300 hn        1 MOL      0.309791
    160 H78        -9.4620    2.8460    5.5390 hn        1 MOL      0.309791
    161 H79        -8.8090    3.1810    6.8960 hn        1 MOL      0.309791
    162 N14        -4.8580    1.2170   -0.4520 n         1 MOL     -0.067933
    163 C49        -4.0310    1.5860   -1.5530 c3        1 MOL     -0.086648
    164 C50        -4.6130    1.2560   -2.9610 c         1 MOL      0.423300
    165 O22        -4.4310    2.0870   -3.9110 o         1 MOL     -0.565357
    166 C51        -2.6200    1.0140   -1.4140 c3        1 MOL     -0.037619
    167 C52        -1.7850    1.6440   -0.3260 c3        1 MOL     -0.005830
    168 C53        -0.5990    0.7940    0.2050 c         1 MOL      0.714751
    169 O23        -0.7750   -0.4210    0.4380 o         1 MOL     -0.710667
    170 O24         0.4360    1.4270    0.4910 o         1 MOL     -0.710667
    171 H80        -4.7510    0.3320    0.0210 hn        1 MOL     -0.059791
    172 H81        -3.8940    2.6600   -1.6470 h1        1 MOL      0.078580
    173 H82        -2.0390    1.1930   -2.3310 hc        1 MOL      0.061509
    174 H83        -2.6340   -0.0540   -1.2170 hc        1 MOL      0.061509
    175 H84        -2.3840    1.9160    0.5440 hc        1 MOL     -0.005142
    176 H85        -1.3800    2.6240   -0.5930 hc        1 MOL     -0.005142
    177 N15        -5.3580    0.1310   -3.1020 n         1 MOL      0.044676
    178 C54        -6.1520   -0.1900   -4.2300 c3        1 MOL     -0.240574
    179 H86        -5.7690    0.3360   -5.1050 h1        1 MOL      0.081735
    180 H87        -6.1140   -1.2640   -4.4070 h1        1 MOL      0.081735
    181 H88        -7.1830    0.1130   -4.0470 h1        1 MOL      0.081735
    182 H89        -5.4870   -0.4590   -2.2930 hn        1 MOL      0.099746
    183 Ca1         1.7740   -0.7480    1.4730 Ca        1 MOL      1.770148
    184 O25         0.3700   -0.2890    3.6590 oh        1 MOL     -0.801186
    185 H90         0.8140    0.5070    3.9520 ho        1 MOL      0.380657
    186 H91         0.0170   -0.6820    4.4550 ho        1 MOL      0.380657
    187 O26         0.9060   -3.0670    2.5530 oh        1 MOL     -0.801186
    188 H92         0.9790   -3.9900    2.3200 ho        1 MOL      0.380657
    189 H93         0.4430   -3.0610    3.3850 ho        1 MOL      0.380657
@<TRIPOS>BOND
     1    1    2 1   
     2    1    4 1   
     3    1    5 1   
     4    1    6 1   
     5    2    3 2   
     6    2    7 1   
     7    7    8 1   
     8    7   15 1   
     9    8    9 1   
    10    8   11 1   
    11    8   16 1   
    12    9   10 2   
    13    9   19 1   
    14   11   12 1   
    15   11   17 1   
    16   11   18 1   
    17   12   13 1   
    18   12   14 1   
    19   19   20 1   
    20   19   28 1   
    21   20   21 1   
    22   20   23 1   
    23   20   29 1   
    24   21   22 2   
    25   21   41 1   
    26   23   24 1   
    27   23   30 1   
    28   23   31 1   
    29   24   25 1   
    30   24   32 1   
    31   24   33 1   
    32   25   26 1   
    33   25   34 1   
    34   25   35 1   
    35   26   27 1   
    36   26   36 1   
    37   26   37 1   
    38   27   38 1   
    39   27   39 1   
    40   27   40 1   
    41   41   42 1   
    42   41   49 1   
    43   42   43 1   
    44   42   45 1   
    45   42   50 1   
    46   43   44 2   
    47   43   53 1   
    48   45   46 1   
    49   45   51 1   
    50   45   52 1   
    51   46   47 1   
    52   46   48 1   
    53   53   54 1   
    54   53   57 1   
    55   54   55 1   
    56   54   58 1   
    57   54   59 1   
    58   55   56 2   
    59   55   60 1   
    60   60   61 1   
    61   60   68 1   
    62   61   62 1   
    63   61   64 1   
    64   61   69 1   
    65   62   63 2   
    66   62   72 1   
    67   64   65 1   
    68   64   70 1   
    69   64   71 1   
    70   65   66 1   
    71   65   67 1   
    72   72   73 1   
    73   72   76 1   
    74   73   74 1   
    75   73   77 1   
    76   73   78 1   
    77   74   75 2   
    78   74   79 1   
    79   79   80 1   
    80   79   86 1   
    81   80   81 1   
    82   80   83 1   
    83   80   87 1   
    84   81   82 2   
    85   81   93 1   
    86   83   84 1   
    87   83   85 1   
    88   83   88 1   
    89   84   90 1   
    90   84   91 1   
    91   84   92 1   
    92   85   89 1   
    93   93   94 1   
    94   93  101 1   
    95   94   95 1   
    96   94   97 1   
    97   94  102 1   
    98   95   96 2   
    99   95  112 1   
   100   97   98 1   
   101   97   99 1   
   102   97  103 1   
   103   98  100 1   
   104   98  104 1   
   105   98  105 1   
   106   99  106 1   
   107   99  107 1   
   108   99  108 1   
   109  100  109 1   
   110  100  110 1   
   111  100  111 1   
   112  112  113 1   
   113  112  119 1   
   114  113  114 1   
   115  113  116 1   
   116  113  120 1   
   117  114  115 2   
   118  114  126 1   
   119  116  117 1   
   120  116  118 1   
   121  116  121 1   
   122  117  123 1   
   123  117  124 1   
   124  117  125 1   
   125  118  122 1   
   126  126  127 1   
   127  126  133 1   
   128  127  128 1   
   129  127  130 1   
   130  127  134 1   
   131  128  129 2   
   132  128  140 1   
   133  130  131 1   
   134  130  132 1   
   135  130  135 1   
   136  131  137 1   
   137  131  138 1   
   138  131  139 1   
   139  132  136 1   
   140  140  141 1   
   141  140  149 1   
   142  141  142 1   
   143  141  144 1   
   144  141  150 1   
   145  142  143 2   
   146  142  162 1   
   147  144  145 1   
   148  144  151 1   
   149  144  152 1   
   150  145  146 1   
   151  145  153 1   
   152  145  154 1   
   153  146  147 1   
   154  146  155 1   
   155  146  156 1   
   156  147  148 1   
   157  147  157 1   
   158  147  158 1   
   159  148  159 1   
   160  148  160 1   
   161  148  161 1   
   162  162  163 1   
   163  162  171 1   
   164  163  164 1   
   165  163  166 1   
   166  163  172 1   
   167  164  165 2   
   168  164  177 1   
   169  166  167 1   
   170  166  173 1   
   171  166  174 1   
   172  167  168 1   
   173  167  175 1   
   174  167  176 1   
   175  168  169 1   
   176  168  170 1   
   177  177  178 1   
   178  177  182 1   
   179  178  179 1   
   180  178  180 1   
   181  178  181 1   
   182  184  185 1   
   183  184  186 1   
   184  187  188 1   
   185  187  189 1   
@<TRIPOS>SUBSTRUCTURE
     1 MOL         1 TEMP              0 ****  ****    0 ROOT
