@<TRIPOS>MOLECULE
MOL
  189   185     1     0     0
SMALL
resp


@<TRIPOS>ATOM
      1 C1         -0.0200    2.4070    6.0710 c3        1 MOL     -0.361411
      2 C2         -0.4600    2.3700    4.6590 c         1 MOL      0.813976
      3 O1          0.2310    2.8280    3.7690 o         1 MOL     -0.669241
      4 H1         -0.6060    1.6930    6.6510 hc        1 MOL      0.093060
      5 H2          1.0350    2.1420    6.1300 hc        1 MOL      0.093060
      6 H3         -0.1680    3.4090    6.4730 hc        1 MOL      0.093060
      7 N1         -1.6450    1.8820    4.3320 n         1 MOL     -0.662334
      8 C3         -2.2200    1.8510    2.9680 c3        1 MOL      0.199070
      9 C4         -2.8220    3.1690    2.5920 c         1 MOL      0.512166
     10 O2         -3.6610    3.7910    3.2590 o         1 MOL     -0.534097
     11 C5         -3.3120    0.7980    2.9070 c3        1 MOL     -0.249893
     12 C6         -3.9940    0.4390    1.5990 c         1 MOL      0.858258
     13 O3         -5.1030   -0.1630    1.6410 o         1 MOL     -0.714168
     14 O4         -3.4640    0.8080    0.5350 o         1 MOL     -0.714168
     15 H4         -2.0920    1.2710    5.0070 hn        1 MOL      0.330740
     16 H5         -1.4040    1.6220    2.2890 h1        1 MOL      0.040729
     17 H6         -4.0350    1.1620    3.6320 hc        1 MOL      0.048110
     18 H7         -2.9030   -0.0930    3.3720 hc        1 MOL      0.048110
     19 N2         -2.2850    3.5630    1.3950 n         1 MOL     -0.150958
     20 C7         -2.2060    4.9160    0.8740 c3        1 MOL     -0.062833
     21 C8         -3.0310    5.0890   -0.3900 c         1 MOL      0.583403
     22 O5         -3.6740    6.1030   -0.5320 o         1 MOL     -0.590958
     23 C9         -0.7150    5.3730    0.6790 c3        1 MOL     -0.059229
     24 C10        -0.5740    6.9430    0.7250 c3        1 MOL     -0.022491
     25 C11         0.8180    7.5420    0.3480 c3        1 MOL     -0.140203
     26 C12         1.7340    7.5270    1.5530 c3        1 MOL      0.053787
     27 N3          3.1610    7.6240    1.2770 n4        1 MOL     -0.448671
     28 H8         -1.6730    2.9020    0.9420 hn        1 MOL      0.122549
     29 H9         -2.7320    5.5540    1.5800 h1        1 MOL      0.063438
     30 H10        -0.3830    4.9940   -0.2860 hc        1 MOL      0.038678
     31 H11        -0.1070    4.8660    1.4240 hc        1 MOL      0.038678
     32 H12        -0.7930    7.2720    1.7460 hc        1 MOL      0.043435
     33 H13        -1.4170    7.2800    0.1230 hc        1 MOL      0.043435
     34 H14         0.6930    8.5230   -0.1020 hc        1 MOL      0.062467
     35 H15         1.3140    6.9560   -0.4280 hc        1 MOL      0.062467
     36 H16         1.6120    6.5500    1.9990 hx        1 MOL      0.096707
     37 H17         1.4750    8.2140    2.3600 hx        1 MOL      0.096707
     38 H18         3.5170    6.8740    0.7120 hn        1 MOL      0.353557
     39 H19         3.3200    8.5420    0.9030 hn        1 MOL      0.353557
     40 H20         3.6380    7.6580    2.1680 hn        1 MOL      0.353557
     41 N4         -3.0480    4.0450   -1.1500 n         1 MOL     -0.415642
     42 C13        -3.7950    4.0190   -2.4700 c3        1 MOL      0.051543
     43 C14        -5.0400    3.1820   -2.3080 c         1 MOL      0.377429
     44 O6         -5.7990    2.9870   -3.2220 o         1 MOL     -0.492956
     45 C15        -2.8220    3.6240   -3.6100 c3        1 MOL     -0.253277
     46 C16        -2.0860    2.2670   -3.4040 c         1 MOL      0.912970
     47 O7         -2.2950    1.4790   -2.4680 o         1 MOL     -0.772711
     48 O8         -1.2520    2.0170   -4.2800 o         1 MOL     -0.772711
     49 H21        -2.4160    3.3070   -0.8670 hn        1 MOL      0.270365
     50 H22        -4.1340    5.0220   -2.6960 h1        1 MOL      0.101813
     51 H23        -2.0580    4.3930   -3.7490 hc        1 MOL      0.059819
     52 H24        -3.4870    3.5860   -4.4730 hc        1 MOL      0.059819
     53 N5         -5.3100    2.6430   -1.1250 n         1 MOL      0.020766
     54 C17        -6.5960    2.0880   -0.7050 c3        1 MOL     -0.495476
     55 C18        -6.9840    0.8180   -1.4190 c         1 MOL      0.784782
     56 O9         -7.7440    0.8330   -2.3860 o         1 MOL     -0.570355
     57 H25        -4.5650    2.7030   -0.4440 hn        1 MOL      0.091091
     58 H26        -7.3120    2.8780   -0.9170 h1        1 MOL      0.159580
     59 H27        -6.4730    1.9620    0.3740 h1        1 MOL      0.159580
     60 N6         -6.4960   -0.3460   -0.9310 n         1 MOL     -0.488799
     61 C19        -6.8270   -1.6730   -1.4600 c3        1 MOL     -0.009759
     62 C20        -6.8560   -2.7880   -0.3320 c         1 MOL      0.458158
     63 O10        -7.3950   -3.8760   -0.5700 o         1 MOL     -0.549747
     64 C21        -5.7550   -2.0200   -2.4850 c3        1 MOL     -0.007127
     65 C22        -4.3330   -1.8060   -2.1630 c         1 MOL      0.609754
     66 O11        -3.5060   -1.3620   -3.0380 o         1 MOL     -0.687860
     67 O12        -3.8550   -2.1600   -1.0430 o         1 MOL     -0.687860
     68 H28        -5.7920   -0.2740   -0.2100 hn        1 MOL      0.140424
     69 H29        -7.8210   -1.6610   -1.8930 h1        1 MOL      0.105510
     70 H30        -6.0060   -1.5330   -3.4240 hc        1 MOL      0.029574
     71 H31        -5.8590   -3.0790   -2.7240 hc        1 MOL      0.029574
     72 N7         -6.4020   -2.5200    0.8950 n         1 MOL     -0.221047
     73 C23        -6.3410   -3.4220    2.0980 c3        1 MOL     -0.335535
     74 C24        -5.1600   -4.3750    2.0890 c         1 MOL      0.581561
     75 O13        -5.1070   -5.4190    2.7200 o         1 MOL     -0.536765
     76 H32        -5.9070   -1.6480    1.0210 hn        1 MOL      0.290432
     77 H33        -7.2520   -4.0150    1.9980 h1        1 MOL      0.152106
     78 H34        -6.2820   -2.8280    3.0110 h1        1 MOL      0.152106
     79 N8         -4.1270   -3.8820    1.3150 n         1 MOL     -0.184099
     80 C25        -2.8310   -4.5080    1.0910 c3        1 MOL     -0.249483
     81 C26        -1.6130   -3.5800    1.1100 c         1 MOL      0.767865
     82 O14        -1.7420   -2.3390    0.9950 o         1 MOL     -0.680531
     83 C27        -2.7750   -5.4330   -0.1450 c3        1 MOL      0.337881
     84 C28        -3.9190   -6.4310   -0.2410 c3        1 MOL     -0.500948
     85 O15        -2.8400   -4.6270   -1.2630 oh        1 MOL     -0.536703
     86 H35        -4.2700   -3.0190    0.8150 hn        1 MOL      0.138134
     87 H36        -2.6310   -5.0850    1.9920 h1        1 MOL      0.077067
     88 H37        -1.7960   -5.9220   -0.2020 h1        1 MOL      0.029580
     89 H38        -3.5030   -3.9950   -1.0020 ho        1 MOL      0.387384
     90 H39        -4.9090   -5.9720   -0.2220 hc        1 MOL      0.136835
     91 H40        -3.7690   -7.0820   -1.1050 hc        1 MOL      0.136835
     92 H41        -3.8180   -6.9930    0.6910 hc        1 MOL      0.136835
     93 N9         -0.4240   -4.1590    1.3220 n         1 MOL     -0.618832
     94 C29         0.9330   -3.4270    1.4690 c3        1 MOL      0.173883
     95 C30         1.9650   -3.8030    0.3840 c         1 MOL      0.430489
     96 O16         2.4100   -4.9800    0.3860 o         1 MOL     -0.528678
     97 C31         1.3530   -3.6060    2.9490 c3        1 MOL     -0.030900
     98 C32         0.6400   -2.4740    3.7540 c3        1 MOL     -0.013463
     99 C33         2.8730   -3.6270    3.1010 c3        1 MOL     -0.002718
    100 C34         0.9150   -2.5560    5.3190 c3        1 MOL     -0.179301
    101 H42        -0.3940   -5.1610    1.4470 hn        1 MOL      0.310951
    102 H43         0.7720   -2.3650    1.2920 h1        1 MOL      0.020491
    103 H44         1.0140   -4.6040    3.2290 hc        1 MOL      0.051590
    104 H45        -0.4320   -2.5290    3.5640 hc        1 MOL      0.047288
    105 H46         0.8840   -1.4740    3.4180 hc        1 MOL      0.047288
    106 H47         3.2790   -2.6440    2.8540 hc        1 MOL     -0.005031
    107 H48         3.1180   -3.8710    4.1260 hc        1 MOL     -0.005031
    108 H49         3.4710   -4.3620    2.5600 hc        1 MOL     -0.005031
    109 H50         1.9220   -2.1380    5.4030 hc        1 MOL      0.043573
    110 H51         0.2150   -1.9680    5.9030 hc        1 MOL      0.043573
    111 H52         0.9410   -3.6130    5.5860 hc        1 MOL      0.043573
    112 N10         2.3430   -2.8420   -0.4620 n         1 MOL     -0.245130
    113 C35         3.5230   -2.9230   -1.3470 c3        1 MOL      0.059591
    114 C36         4.7700   -2.3690   -0.7350 c         1 MOL      0.363960
    115 O17         4.6960   -1.6760    0.3110 o         1 MOL     -0.312903
    116 C37         3.2720   -2.2610   -2.7280 c3        1 MOL      0.071920
    117 C38         2.2840   -2.9630   -3.5930 c3        1 MOL     -0.107437
    118 O18         2.7950   -0.9170   -2.7350 oh        1 MOL     -0.663558
    119 H53         1.8500   -1.9640   -0.5000 hn        1 MOL      0.252025
    120 H54         3.6910   -3.9670   -1.5820 h1        1 MOL      0.053492
    121 H55         4.2240   -2.1810   -3.2630 h1        1 MOL      0.068744
    122 H56         1.9640   -0.9180   -2.2560 ho        1 MOL      0.422752
    123 H57         2.1400   -2.6040   -4.6020 hc        1 MOL      0.044177
    124 H58         2.6390   -3.9760   -3.7470 hc        1 MOL      0.044177
    125 H59         1.3770   -3.0350   -2.9770 hc        1 MOL      0.044177
    126 N11         5.8930   -2.7140   -1.3670 n         1 MOL     -0.295374
    127 C39         7.2300   -2.3350   -0.7930 c3        1 MOL     -0.175689
    128 C40         7.3670   -0.9630   -0.2650 c         1 MOL      0.521871
    129 O19         7.7830   -0.7740    0.8650 o         1 MOL     -0.500341
    130 C41         8.2940   -2.5600   -1.8830 c3        1 MOL      0.235325
    131 C42         8.5950   -4.0130   -2.2600 c3        1 MOL     -0.278456
    132 O20         8.0500   -1.9580   -3.0860 oh        1 MOL     -0.635411
    133 H60         5.8880   -3.2690   -2.2030 hn        1 MOL      0.292196
    134 H61         7.4710   -2.9590    0.0660 h1        1 MOL      0.150996
    135 H62         9.2640   -2.2490   -1.5020 h1        1 MOL      0.068480
    136 H63         8.8410   -1.9270   -3.6190 ho        1 MOL      0.429121
    137 H64         8.8230   -4.5620   -1.3460 hc        1 MOL      0.081717
    138 H65         7.8190   -4.5090   -2.8460 hc        1 MOL      0.081717
    139 H66         9.5580   -4.0690   -2.7720 hc        1 MOL      0.081717
    140 N12         6.9410    0.0680   -1.0650 n         1 MOL     -0.371960
    141 C43         6.9620    1.4970   -0.6480 c3        1 MOL     -0.079583
    142 C44         6.0810    1.8800    0.6200 c         1 MOL      0.325806
    143 O21         6.3590    2.8520    1.3400 o         1 MOL     -0.526558
    144 C45         6.5660    2.3780   -1.8680 c3        1 MOL     -0.170177
    145 C46         5.1940    2.0870   -2.4990 c3        1 MOL      0.144469
    146 C47         4.8770    2.5400   -3.9360 c3        1 MOL      0.002733
    147 C48         3.3980    2.2770   -4.2190 c3        1 MOL     -0.048938
    148 N13         3.2200    0.9270   -4.8550 n4        1 MOL     -0.347837
    149 H67         6.4640   -0.2780   -1.8900 hn        1 MOL      0.191865
    150 H68         8.0090    1.7630   -0.4680 h1        1 MOL      0.163529
    151 H69         7.3690    2.4650   -2.6050 hc        1 MOL      0.057984
    152 H70         6.5630    3.4430   -1.6350 hc        1 MOL      0.057984
    153 H71         4.4630    2.4710   -1.7860 hc        1 MOL      0.006296
    154 H72         5.0340    1.0100   -2.5040 hc        1 MOL      0.006296
    155 H73         5.5730    1.9950   -4.5710 hc        1 MOL      0.018907
    156 H74         5.0580    3.6100   -4.0630 hc        1 MOL      0.018907
    157 H75         3.1770    3.0900   -4.9120 hx        1 MOL      0.103843
    158 H76         2.8970    2.5250   -3.2860 hx        1 MOL      0.103843
    159 H77         3.7740    0.6220   -5.6350 hn        1 MOL      0.324788
    160 H78         3.2900    0.1410   -4.2240 hn        1 MOL      0.324788
    161 H79         2.2810    0.9490   -5.2350 hn        1 MOL      0.324788
    162 N14         5.0250    1.1620    0.8500 n         1 MOL      0.043094
    163 C49         4.1160    1.3530    2.0150 c3        1 MOL     -0.334476
    164 C50         4.6430    0.6090    3.2420 c         1 MOL      0.542832
    165 O22         4.4260    1.0600    4.3720 o         1 MOL     -0.554944
    166 C51         2.6930    0.8370    1.6200 c3        1 MOL      0.276119
    167 C52         2.0620    1.3560    0.3860 c3        1 MOL     -0.157570
    168 C53         0.6990    0.6850    0.0200 c         1 MOL      0.681692
    169 O23         0.6350   -0.5330   -0.1780 o         1 MOL     -0.709771
    170 O24        -0.3120    1.4040   -0.2100 o         1 MOL     -0.709771
    171 H80         4.7600    0.5270    0.1150 hn        1 MOL      0.106290
    172 H81         4.1470    2.4190    2.2600 h1        1 MOL      0.143195
    173 H82         1.9640    0.9880    2.4180 hc        1 MOL     -0.022708
    174 H83         2.8130   -0.2460    1.6740 hc        1 MOL     -0.022708
    175 H84         2.7100    1.2390   -0.4800 hc        1 MOL      0.005208
    176 H85         1.9970    2.4310    0.5550 hc        1 MOL      0.005208
    177 N15         5.2820   -0.5510    3.0480 n         1 MOL     -0.107813
    178 C54         6.0560   -1.3170    4.1060 c3        1 MOL     -0.427467
    179 H86         5.3570   -1.8420    4.7570 h1        1 MOL      0.154100
    180 H87         6.7150   -2.0390    3.6230 h1        1 MOL      0.154100
    181 H88         6.6510   -0.6210    4.6980 h1        1 MOL      0.154100
    182 H89         5.3380   -0.9020    2.1050 hn        1 MOL      0.149004
    183 Ca1        -1.8040   -0.5700   -1.1050 Ca        1 MOL      1.772900
    184 O25        -0.0610   -0.0910   -3.1830 oh        1 MOL     -0.847938
    185 H90        -0.5650    0.5200   -3.7320 ho        1 MOL      0.383008
    186 H91         0.6980   -0.3210   -3.7120 ho        1 MOL      0.383008
    187 O26        -1.0860   -2.9740   -2.2590 oh        1 MOL     -0.847938
    188 H92        -1.0360   -3.1380   -3.2080 ho        1 MOL      0.383008
    189 H93        -1.7570   -3.5740   -1.9520 ho        1 MOL      0.383008
@<TRIPOS>BOND
     1    1    2 1   
     2    1    4 1   
     3    1    5 1   
     4    1    6 1   
     5    2    3 2   
     6    2    7 1   
     7    7    8 1   
     8    7   15 1   
     9    8    9 1   
    10    8   11 1   
    11    8   16 1   
    12    9   10 2   
    13    9   19 1   
    14   11   12 1   
    15   11   17 1   
    16   11   18 1   
    17   12   13 1   
    18   12   14 1   
    19   19   20 1   
    20   19   28 1   
    21   20   21 1   
    22   20   23 1   
    23   20   29 1   
    24   21   22 2   
    25   21   41 1   
    26   23   24 1   
    27   23   30 1   
    28   23   31 1   
    29   24   25 1   
    30   24   32 1   
    31   24   33 1   
    32   25   26 1   
    33   25   34 1   
    34   25   35 1   
    35   26   27 1   
    36   26   36 1   
    37   26   37 1   
    38   27   38 1   
    39   27   39 1   
    40   27   40 1   
    41   41   42 1   
    42   41   49 1   
    43   42   43 1   
    44   42   45 1   
    45   42   50 1   
    46   43   44 2   
    47   43   53 1   
    48   45   46 1   
    49   45   51 1   
    50   45   52 1   
    51   46   47 1   
    52   46   48 1   
    53   53   54 1   
    54   53   57 1   
    55   54   55 1   
    56   54   58 1   
    57   54   59 1   
    58   55   56 2   
    59   55   60 1   
    60   60   61 1   
    61   60   68 1   
    62   61   62 1   
    63   61   64 1   
    64   61   69 1   
    65   62   63 2   
    66   62   72 1   
    67   64   65 1   
    68   64   70 1   
    69   64   71 1   
    70   65   66 1   
    71   65   67 1   
    72   72   73 1   
    73   72   76 1   
    74   73   74 1   
    75   73   77 1   
    76   73   78 1   
    77   74   75 2   
    78   74   79 1   
    79   79   80 1   
    80   79   86 1   
    81   80   81 1   
    82   80   83 1   
    83   80   87 1   
    84   81   82 2   
    85   81   93 1   
    86   83   84 1   
    87   83   85 1   
    88   83   88 1   
    89   84   90 1   
    90   84   91 1   
    91   84   92 1   
    92   85   89 1   
    93   93   94 1   
    94   93  101 1   
    95   94   95 1   
    96   94   97 1   
    97   94  102 1   
    98   95   96 2   
    99   95  112 1   
   100   97   98 1   
   101   97   99 1   
   102   97  103 1   
   103   98  100 1   
   104   98  104 1   
   105   98  105 1   
   106   99  106 1   
   107   99  107 1   
   108   99  108 1   
   109  100  109 1   
   110  100  110 1   
   111  100  111 1   
   112  112  113 1   
   113  112  119 1   
   114  113  114 1   
   115  113  116 1   
   116  113  120 1   
   117  114  115 2   
   118  114  126 1   
   119  116  117 1   
   120  116  118 1   
   121  116  121 1   
   122  117  123 1   
   123  117  124 1   
   124  117  125 1   
   125  118  122 1   
   126  126  127 1   
   127  126  133 1   
   128  127  128 1   
   129  127  130 1   
   130  127  134 1   
   131  128  129 2   
   132  128  140 1   
   133  130  131 1   
   134  130  132 1   
   135  130  135 1   
   136  131  137 1   
   137  131  138 1   
   138  131  139 1   
   139  132  136 1   
   140  140  141 1   
   141  140  149 1   
   142  141  142 1   
   143  141  144 1   
   144  141  150 1   
   145  142  143 2   
   146  142  162 1   
   147  144  145 1   
   148  144  151 1   
   149  144  152 1   
   150  145  146 1   
   151  145  153 1   
   152  145  154 1   
   153  146  147 1   
   154  146  155 1   
   155  146  156 1   
   156  147  148 1   
   157  147  157 1   
   158  147  158 1   
   159  148  159 1   
   160  148  160 1   
   161  148  161 1   
   162  162  163 1   
   163  162  171 1   
   164  163  164 1   
   165  163  166 1   
   166  163  172 1   
   167  164  165 2   
   168  164  177 1   
   169  166  167 1   
   170  166  173 1   
   171  166  174 1   
   172  167  168 1   
   173  167  175 1   
   174  167  176 1   
   175  168  169 1   
   176  168  170 1   
   177  177  178 1   
   178  177  182 1   
   179  178  179 1   
   180  178  180 1   
   181  178  181 1   
   182  184  185 1   
   183  184  186 1   
   184  187  188 1   
   185  187  189 1   
@<TRIPOS>SUBSTRUCTURE
     1 MOL         1 TEMP              0 ****  ****    0 ROOT
