@<TRIPOS>MOLECULE
MOL
  175   173     1     0     0
SMALL
resp


@<TRIPOS>ATOM
      1 C1          0.3870    3.9940    5.7600 c3        1 MOL     -0.344999
      2 C2         -0.1210    3.9570    4.3290 c         1 MOL      0.735447
      3 O1          0.6320    4.1590    3.3860 o         1 MOL     -0.553496
      4 H1          0.1340    3.0590    6.2590 hc        1 MOL      0.081737
      5 H2          1.4700    4.1230    5.7590 hc        1 MOL      0.081737
      6 H3         -0.0780    4.8260    6.2890 hc        1 MOL      0.081737
      7 N1         -1.4120    3.5390    4.1750 n         1 MOL     -0.688223
      8 C3         -1.9420    3.3260    2.7990 c3        1 MOL      0.152050
      9 C4         -1.8580    4.5850    1.9040 c         1 MOL      0.632133
     10 O2         -2.1220    5.7340    2.3320 o         1 MOL     -0.582802
     11 C5         -3.3220    2.8240    2.9860 c3        1 MOL     -0.526111
     12 C6         -4.0700    2.3890    1.7580 c         1 MOL      0.818959
     13 O3         -5.2800    2.1190    1.9880 o         1 MOL     -0.687657
     14 O4         -3.4760    2.0420    0.7380 o         1 MOL     -0.687657
     15 H4         -1.9860    3.3560    4.9870 hn        1 MOL      0.355281
     16 H5         -1.4210    2.5070    2.2890 h1        1 MOL      0.084877
     17 H6         -3.8180    3.6240    3.5350 hc        1 MOL      0.130196
     18 H7         -3.3500    1.9210    3.5850 hc        1 MOL      0.130196
     19 N2         -1.6550    4.3950    0.5850 n         1 MOL     -0.588988
     20 C7         -1.8260    5.4700   -0.4540 c3        1 MOL      0.421872
     21 C8         -2.8660    5.1570   -1.5020 c         1 MOL      0.394596
     22 O5         -3.0630    6.0210   -2.4070 o         1 MOL     -0.560545
     23 C9         -0.4760    5.7520   -1.1110 c3        1 MOL     -0.293537
     24 H8         -1.6080    3.4370    0.2780 hn        1 MOL      0.329119
     25 H9         -2.1180    6.3630    0.1030 h1        1 MOL     -0.007735
     26 H10        -0.1240    4.8820   -1.6740 hc        1 MOL      0.065773
     27 H11        -0.6150    6.6180   -1.7660 hc        1 MOL      0.065773
     28 H12         0.2230    5.9960   -0.3040 hc        1 MOL      0.065773
     29 N3         -3.6150    4.0340   -1.4200 n         1 MOL     -0.408616
     30 C10        -4.3730    3.6750   -2.6810 c3        1 MOL      0.134671
     31 C11        -5.7960    3.0510   -2.4530 c         1 MOL      0.404748
     32 O6         -6.6950    3.1480   -3.2920 o         1 MOL     -0.558605
     33 C12        -3.5240    2.6150   -3.4590 c3        1 MOL     -0.158504
     34 C13        -3.0380    1.4200   -2.6780 c         1 MOL      0.689710
     35 O7         -1.9300    0.9150   -2.8450 o         1 MOL     -0.690092
     36 O8         -3.8380    0.9090   -1.8570 o         1 MOL     -0.690092
     37 H13        -3.5550    3.4410   -0.6120 hn        1 MOL      0.203754
     38 H14        -4.4460    4.5510   -3.3350 h1        1 MOL      0.080134
     39 H15        -2.5770    3.1190   -3.6530 hc        1 MOL      0.040912
     40 H16        -3.9430    2.3710   -4.4360 hc        1 MOL      0.040912
     41 N4         -6.0860    2.5020   -1.2480 n         1 MOL     -0.239977
     42 C14        -7.3890    1.8220   -0.9570 c3        1 MOL     -0.194994
     43 C15        -7.3600    0.3340   -1.1800 c         1 MOL      0.514200
     44 O9         -8.4490   -0.1830   -1.1160 o         1 MOL     -0.620403
     45 H17        -5.3700    2.3290   -0.5630 hn        1 MOL      0.140479
     46 H18        -8.1710    2.2120   -1.6100 h1        1 MOL      0.128219
     47 H19        -7.7410    2.0880    0.0400 h1        1 MOL      0.128219
     48 N5         -6.3150   -0.3570   -1.6040 n         1 MOL     -0.155347
     49 C16        -6.4080   -1.7310   -2.1500 c3        1 MOL     -0.090985
     50 C17        -6.5820   -2.8620   -1.1380 c         1 MOL      0.434822
     51 O10        -6.7910   -4.0170   -1.5080 o         1 MOL     -0.548952
     52 C18        -5.2150   -2.0370   -3.1550 c3        1 MOL     -0.227452
     53 C19        -3.8560   -2.1200   -2.5700 c         1 MOL      0.582779
     54 N6         -2.8790   -2.1760   -3.4160 n         1 MOL     -0.646714
     55 O11        -3.5890   -1.9680   -1.3910 o         1 MOL     -0.189354
     56 H20        -5.4240    0.1220   -1.5710 hn        1 MOL      0.172235
     57 H21        -7.3290   -1.8130   -2.7280 h1        1 MOL      0.130239
     58 H22        -5.0540   -1.2820   -3.9270 hc        1 MOL      0.066680
     59 H23        -5.4050   -2.9730   -3.6950 hc        1 MOL      0.066680
     60 H24        -2.9790   -2.2730   -4.4100 hn        1 MOL      0.325692
     61 H25        -1.9740   -2.1690   -2.9730 hn        1 MOL      0.325692
     62 N7         -6.4840   -2.5920    0.1370 n         1 MOL     -0.184727
     63 C20        -6.6300   -3.5630    1.2020 c3        1 MOL     -0.112936
     64 C21        -5.2760   -4.3320    1.5420 c         1 MOL      0.405015
     65 O12        -5.3770   -5.3260    2.3170 o         1 MOL     -0.557869
     66 H26        -6.3670   -1.6140    0.3700 hn        1 MOL      0.165802
     67 H27        -7.4660   -4.2460    1.0120 h1        1 MOL      0.091234
     68 H28        -6.9550   -3.1700    2.1670 h1        1 MOL      0.091234
     69 N8         -4.1240   -3.8630    1.1160 n         1 MOL     -0.027243
     70 C22        -2.8340   -4.5510    1.4240 c3        1 MOL     -0.283217
     71 C23        -1.6990   -3.4890    1.4960 c         1 MOL      0.586199
     72 O13        -1.7280   -2.4020    0.9490 o         1 MOL     -0.521869
     73 C24        -2.4460   -5.4350    0.2350 c3        1 MOL      0.575665
     74 C25        -3.3390   -6.7220    0.3060 c3        1 MOL     -0.546026
     75 O14        -2.6070   -4.8180   -0.9960 oh        1 MOL     -0.528523
     76 H29        -4.1750   -2.8650    0.9550 hn        1 MOL      0.068371
     77 H30        -2.9400   -5.0600    2.3860 h1        1 MOL      0.109069
     78 H31        -1.4250   -5.7740    0.3410 h1        1 MOL     -0.020014
     79 H32        -2.8520   -3.8930   -0.9780 ho        1 MOL      0.102408
     80 H33        -4.3810   -6.4940    0.0660 hc        1 MOL      0.130513
     81 H34        -2.9220   -7.4660   -0.3760 hc        1 MOL      0.130513
     82 H35        -3.3880   -7.1220    1.3150 hc        1 MOL      0.130513
     83 N9         -0.5340   -3.8980    2.0930 n         1 MOL     -0.501541
     84 C26         0.6280   -3.0590    2.0960 c3        1 MOL      0.047679
     85 C27         1.3830   -3.2580    0.7610 c         1 MOL      0.587936
     86 O15         1.6930   -4.4160    0.4020 o         1 MOL     -0.603313
     87 C28         1.4680   -3.2340    3.4110 c3        1 MOL      0.029898
     88 C29         0.7790   -2.4590    4.6120 c3        1 MOL      0.008429
     89 C30         2.9050   -2.7780    3.2350 c3        1 MOL      0.017518
     90 C31         1.3600   -2.8540    5.9650 c3        1 MOL     -0.232570
     91 H36        -0.4090   -4.8500    2.3730 hn        1 MOL      0.270604
     92 H37         0.3130   -2.0200    2.1800 h1        1 MOL     -0.049779
     93 H38         1.6270   -4.2660    3.6950 hc        1 MOL      0.030311
     94 H39        -0.2870   -2.6860    4.5670 hc        1 MOL      0.025526
     95 H40         0.8920   -1.3750    4.5240 hc        1 MOL      0.025526
     96 H41         3.0140   -1.6990    3.2320 hc        1 MOL     -0.008093
     97 H42         3.5890   -3.2760    3.9100 hc        1 MOL     -0.008093
     98 H43         3.3060   -3.1740    2.2940 hc        1 MOL     -0.008093
     99 H44         1.1140   -3.8670    6.2790 hc        1 MOL      0.053297
    100 H45         2.4320   -2.6730    5.9310 hc        1 MOL      0.053297
    101 H46         1.0470   -2.1430    6.7280 hc        1 MOL      0.053297
    102 N10         1.7790   -2.2110    0.0260 n         1 MOL     -0.281550
    103 C32         2.6240   -2.0800   -1.1510 c3        1 MOL     -0.030763
    104 C33         4.0230   -1.5640   -0.8400 c         1 MOL      0.591582
    105 O16         4.2480   -0.9980    0.2390 o         1 MOL     -0.455883
    106 C34         1.8360   -1.1810   -2.0950 c3        1 MOL     -0.329624
    107 C35         0.4570   -1.8120   -2.4840 c         1 MOL      0.743670
    108 O17        -0.6010   -1.5250   -1.8520 o         1 MOL     -0.689582
    109 O18         0.3760   -2.4040   -3.6250 o         1 MOL     -0.689582
    110 H47         1.4720   -1.3370    0.4330 hn        1 MOL      0.233539
    111 H48         2.7340   -3.0960   -1.5430 h1        1 MOL      0.085406
    112 H49         2.4950   -0.9560   -2.9400 hc        1 MOL      0.111000
    113 H50         1.6890   -0.2300   -1.5830 hc        1 MOL      0.111000
    114 N11         5.0230   -1.7820   -1.7030 n         1 MOL     -0.820493
    115 C36         6.4010   -1.5060   -1.3270 c3        1 MOL      0.810407
    116 C37         6.7100    0.0510   -1.1620 c         1 MOL      0.112493
    117 O19         7.5450    0.3500   -0.2770 o         1 MOL     -0.456376
    118 C38         7.4160   -2.0640   -2.3650 c3        1 MOL     -0.304884
    119 C39         8.8940   -1.8840   -2.1190 ca        1 MOL      0.326163
    120 C40         9.7790   -1.4600   -3.1100 ca        1 MOL     -0.326000
    121 C41         9.4340   -2.4050   -0.8820 ca        1 MOL     -0.326000
    122 C42        11.0930   -1.2800   -2.7640 ca        1 MOL      0.018272
    123 C43        10.7390   -2.1900   -0.4790 ca        1 MOL      0.018272
    124 C44        11.5620   -1.6100   -1.4120 ca        1 MOL     -0.257913
    125 H51         4.7770   -2.1960   -2.5900 hn        1 MOL      0.353992
    126 H52         6.6260   -2.0590   -0.4100 h1        1 MOL     -0.051984
    127 H53         7.2100   -1.6790   -3.3690 hc        1 MOL      0.046342
    128 H54         7.1930   -3.1300   -2.3720 hc        1 MOL      0.046342
    129 H55         9.4060   -1.2150   -4.0940 ha        1 MOL      0.147512
    130 H56         8.8440   -3.0260   -0.2230 ha        1 MOL      0.147512
    131 H57        11.7770   -1.0430   -3.5630 ha        1 MOL      0.089740
    132 H58        11.1730   -2.4500    0.4870 ha        1 MOL      0.089740
    133 H59        12.5310   -1.2820   -1.0630 ha        1 MOL      0.128240
    134 N12         6.0290    1.0200   -1.9030 n         1 MOL     -0.038609
    135 C45         6.0840    2.4520   -1.6620 c3        1 MOL      0.083574
    136 C46         5.5960    2.9350   -0.2920 c         1 MOL      0.267870
    137 O20         5.9530    4.0660    0.1350 o         1 MOL     -0.499220
    138 C47         5.3630    3.2270   -2.7180 c3        1 MOL     -0.140126
    139 C48         5.4090    2.2680   -3.9200 c3        1 MOL      0.064314
    140 C49         5.4910    0.8980   -3.2360 c3        1 MOL      0.011004
    141 H60         7.1220    2.7840   -1.7810 h1        1 MOL      0.050726
    142 H61         4.3420    3.5500   -2.4970 hc        1 MOL      0.065609
    143 H62         5.9680    4.1190   -2.8810 hc        1 MOL      0.065609
    144 H63         4.6050    2.3300   -4.6560 hc        1 MOL      0.004377
    145 H64         6.2600    2.4400   -4.5880 hc        1 MOL      0.004377
    146 H65         4.4950    0.4620   -3.2670 h1        1 MOL      0.001611
    147 H66         6.1670    0.2040   -3.7430 h1        1 MOL      0.001611
    148 N13         4.8810    2.0130    0.3530 n         1 MOL     -0.083013
    149 C50         4.2790    2.2440    1.6680 c3        1 MOL     -0.134188
    150 C51         5.1400    1.5590    2.8020 c         1 MOL      0.489041
    151 O21         5.1360    2.0830    3.9210 o         1 MOL     -0.554942
    152 C52         2.8590    1.5750    1.6740 c3        1 MOL      0.122523
    153 C53         1.8610    2.1300    0.6470 c3        1 MOL      0.068580
    154 C54         0.5750    1.3820    0.4210 c         1 MOL      0.409046
    155 O22        -0.3110    1.8670   -0.2990 o         1 MOL     -0.651167
    156 O23         0.3420    0.2410    0.8780 o         1 MOL     -0.651167
    157 H67         4.6130    1.1510   -0.1130 hn        1 MOL      0.107552
    158 H68         4.1990    3.3130    1.8760 h1        1 MOL      0.104920
    159 H69         2.4630    1.7950    2.6580 hc        1 MOL     -0.008586
    160 H70         2.9980    0.4950    1.6570 hc        1 MOL     -0.008586
    161 H71         2.3520    2.2310   -0.3250 hc        1 MOL      0.025379
    162 H72         1.6820    3.1650    0.9510 hc        1 MOL      0.025379
    163 N14         5.8190    0.4810    2.3940 n         1 MOL     -0.145992
    164 C55         6.6470   -0.2810    3.2540 c3        1 MOL     -0.090322
    165 H73         6.0890   -1.1400    3.6270 h1        1 MOL      0.051847
    166 H74         7.5220   -0.6260    2.7040 h1        1 MOL      0.051847
    167 H75         6.9650    0.3370    4.0940 h1        1 MOL      0.051847
    168 H76         5.5610    0.1850    1.4630 hn        1 MOL      0.097243
    169 Ca1        -2.0940   -0.0590   -0.2270 Ca        1 MOL      1.693666
    170 O24        -4.4340   -0.6790    1.1280 oh        1 MOL     -0.700643
    171 H77        -4.8350    0.1940    1.2160 ho        1 MOL      0.351232
    172 H78        -4.6400   -1.1130    1.9590 ho        1 MOL      0.351232
    173 O25        -1.7050   -0.0210    2.6100 oh        1 MOL     -0.700643
    174 H79        -0.7600    0.0080    2.4270 ho        1 MOL      0.351232
    175 H80        -1.7520   -0.3640    3.5020 ho        1 MOL      0.351232
@<TRIPOS>BOND
     1    1    2 1   
     2    1    4 1   
     3    1    5 1   
     4    1    6 1   
     5    2    3 2   
     6    2    7 1   
     7    7    8 1   
     8    7   15 1   
     9    8    9 1   
    10    8   11 1   
    11    8   16 1   
    12    9   10 2   
    13    9   19 1   
    14   11   12 1   
    15   11   17 1   
    16   11   18 1   
    17   12   13 1   
    18   12   14 1   
    19   19   20 1   
    20   19   24 1   
    21   20   21 1   
    22   20   23 1   
    23   20   25 1   
    24   21   22 2   
    25   21   29 1   
    26   23   26 1   
    27   23   27 1   
    28   23   28 1   
    29   29   30 1   
    30   29   37 1   
    31   30   31 1   
    32   30   33 1   
    33   30   38 1   
    34   31   32 2   
    35   31   41 1   
    36   33   34 1   
    37   33   39 1   
    38   33   40 1   
    39   34   35 1   
    40   34   36 1   
    41   41   42 1   
    42   41   45 1   
    43   42   43 1   
    44   42   46 1   
    45   42   47 1   
    46   43   44 2   
    47   43   48 1   
    48   48   49 1   
    49   48   56 1   
    50   49   50 1   
    51   49   52 1   
    52   49   57 1   
    53   50   51 2   
    54   50   62 1   
    55   52   53 1   
    56   52   58 1   
    57   52   59 1   
    58   53   54 1   
    59   53   55 2   
    60   54   60 1   
    61   54   61 1   
    62   62   63 1   
    63   62   66 1   
    64   63   64 1   
    65   63   67 1   
    66   63   68 1   
    67   64   65 2   
    68   64   69 1   
    69   69   70 1   
    70   69   76 1   
    71   70   71 1   
    72   70   73 1   
    73   70   77 1   
    74   71   72 2   
    75   71   83 1   
    76   73   74 1   
    77   73   75 1   
    78   73   78 1   
    79   74   80 1   
    80   74   81 1   
    81   74   82 1   
    82   75   79 1   
    83   83   84 1   
    84   83   91 1   
    85   84   85 1   
    86   84   87 1   
    87   84   92 1   
    88   85   86 2   
    89   85  102 1   
    90   87   88 1   
    91   87   89 1   
    92   87   93 1   
    93   88   90 1   
    94   88   94 1   
    95   88   95 1   
    96   89   96 1   
    97   89   97 1   
    98   89   98 1   
    99   90   99 1   
   100   90  100 1   
   101   90  101 1   
   102  102  103 1   
   103  102  110 1   
   104  103  104 1   
   105  103  106 1   
   106  103  111 1   
   107  104  105 2   
   108  104  114 1   
   109  106  107 1   
   110  106  112 1   
   111  106  113 1   
   112  107  108 1   
   113  107  109 1   
   114  114  115 1   
   115  114  125 1   
   116  115  116 1   
   117  115  118 1   
   118  115  126 1   
   119  116  117 2   
   120  116  134 1   
   121  118  119 1   
   122  118  127 1   
   123  118  128 1   
   124  119  120 ar  
   125  119  121 ar  
   126  120  122 ar  
   127  120  129 1   
   128  121  123 ar  
   129  121  130 1   
   130  122  124 ar  
   131  122  131 1   
   132  123  124 ar  
   133  123  132 1   
   134  124  133 1   
   135  134  135 1   
   136  134  140 1   
   137  135  136 1   
   138  135  138 1   
   139  135  141 1   
   140  136  137 2   
   141  136  148 1   
   142  138  139 1   
   143  138  142 1   
   144  138  143 1   
   145  139  140 1   
   146  139  144 1   
   147  139  145 1   
   148  140  146 1   
   149  140  147 1   
   150  148  149 1   
   151  148  157 1   
   152  149  150 1   
   153  149  152 1   
   154  149  158 1   
   155  150  151 2   
   156  150  163 1   
   157  152  153 1   
   158  152  159 1   
   159  152  160 1   
   160  153  154 1   
   161  153  161 1   
   162  153  162 1   
   163  154  155 1   
   164  154  156 1   
   165  163  164 1   
   166  163  168 1   
   167  164  165 1   
   168  164  166 1   
   169  164  167 1   
   170  170  171 1   
   171  170  172 1   
   172  173  174 1   
   173  173  175 1   
@<TRIPOS>SUBSTRUCTURE
     1 MOL         1 TEMP              0 ****  ****    0 ROOT
