@<TRIPOS>MOLECULE
MOL
  179   176     1     0     0
SMALL
resp


@<TRIPOS>ATOM
      1 C1          3.0070    2.4420    4.4600 c3        1 MOL     -0.550938
      2 C2          2.0690    2.3550    3.2660 c         1 MOL      0.705774
      3 O1          2.5900    2.3970    2.1620 o         1 MOL     -0.548245
      4 H1          3.8130    3.1410    4.2380 hc        1 MOL      0.140521
      5 H2          2.4540    2.7900    5.3320 hc        1 MOL      0.140521
      6 H3          3.4270    1.4570    4.6650 hc        1 MOL      0.140521
      7 N1          0.7550    2.3130    3.4670 n         1 MOL     -0.544848
      8 C3         -0.2280    2.1580    2.4010 c3        1 MOL      0.280487
      9 C4         -0.4690    3.4560    1.5750 c         1 MOL      0.258976
     10 O2         -1.3920    4.2540    1.7620 o         1 MOL     -0.417582
     11 C5         -1.5420    1.4540    2.8240 c3        1 MOL     -0.045018
     12 C6         -2.6740    1.4830    1.7090 c         1 MOL      0.277857
     13 O3         -3.8560    1.7510    2.1150 o         1 MOL     -0.529027
     14 O4         -2.2040    1.3990    0.5380 o         1 MOL     -0.529027
     15 H4          0.4370    2.4350    4.4140 hn        1 MOL      0.305545
     16 H5          0.1900    1.4980    1.6410 h1        1 MOL     -0.075039
     17 H6         -1.9400    2.0070    3.6710 hc        1 MOL      0.032888
     18 H7         -1.2950    0.4340    3.1360 hc        1 MOL      0.032888
     19 N2          0.5350    3.7900    0.7380 n         1 MOL     -0.209796
     20 C7          0.6950    5.1400    0.2130 c3        1 MOL     -0.005879
     21 C8         -0.2930    5.6310   -0.9380 c         1 MOL      0.375267
     22 O5         -0.6000    6.8280   -1.1410 o         1 MOL     -0.532402
     23 C9          2.1620    5.5810   -0.1470 c3        1 MOL     -0.017391
     24 C10         2.9410    5.9280    1.1100 c3        1 MOL      0.138881
     25 C11         4.2250    6.7510    0.7610 c3        1 MOL     -0.025793
     26 C12         5.2180    7.1380    1.8180 c3        1 MOL     -0.057512
     27 N3          5.8340    5.9310    2.4170 n4        1 MOL     -0.345608
     28 H8          1.2610    3.0880    0.7890 hn        1 MOL      0.252118
     29 H9          0.3520    5.8090    1.0020 h1        1 MOL      0.085744
     30 H10         2.1280    6.5040   -0.7160 hc        1 MOL      0.030479
     31 H11         2.7100    4.8820   -0.7790 hc        1 MOL      0.030479
     32 H12         3.0530    5.0260    1.7050 hc        1 MOL     -0.042209
     33 H13         2.3660    6.6420    1.7100 hc        1 MOL     -0.042209
     34 H14         3.9530    7.6900    0.2660 hc        1 MOL      0.043025
     35 H15         4.6570    6.1870   -0.0570 hc        1 MOL      0.043025
     36 H16         4.7900    7.7160    2.6340 hx        1 MOL      0.108629
     37 H17         6.0180    7.7640    1.4230 hx        1 MOL      0.108629
     38 H18         6.2110    5.3210    1.7070 hn        1 MOL      0.329263
     39 H19         6.5590    6.2180    3.0550 hn        1 MOL      0.329263
     40 H20         5.1200    5.4680    2.9610 hn        1 MOL      0.329263
     41 N4         -0.8870    4.6990   -1.7110 n         1 MOL     -0.204746
     42 C13        -2.0540    4.9330   -2.6210 c3        1 MOL      0.002816
     43 C14        -3.3880    4.5980   -1.9210 c         1 MOL      0.410328
     44 O6         -4.4220    4.7070   -2.5300 o         1 MOL     -0.540044
     45 C15        -1.9720    4.1720   -3.9240 c3        1 MOL     -0.202023
     46 C16        -1.9400    2.6530   -3.7520 c         1 MOL      0.824363
     47 O7         -2.0400    2.1380   -2.6270 o         1 MOL     -0.731209
     48 O8         -1.7080    2.0220   -4.8020 o         1 MOL     -0.731209
     49 H21        -0.6680    3.7170   -1.6230 hn        1 MOL      0.140089
     50 H22        -2.0510    5.9980   -2.8700 h1        1 MOL      0.110706
     51 H23        -1.0130    4.4440   -4.3650 hc        1 MOL      0.062103
     52 H24        -2.7710    4.4360   -4.6160 hc        1 MOL      0.062103
     53 N5         -3.3890    4.2880   -0.6000 n         1 MOL     -0.046162
     54 C17        -4.5560    4.2520    0.3330 c3        1 MOL     -0.406746
     55 C18        -5.5940    3.1350    0.1740 c         1 MOL      0.597419
     56 O9         -6.6440    3.1380    0.8450 o         1 MOL     -0.565384
     57 H25        -2.5030    4.1020   -0.1580 hn        1 MOL      0.071063
     58 H26        -5.1020    5.1740    0.1220 h1        1 MOL      0.173394
     59 H27        -4.2140    4.4050    1.3510 h1        1 MOL      0.173394
     60 N6         -5.3600    2.2200   -0.8020 n         1 MOL     -0.225106
     61 C19        -6.2600    1.1720   -1.2710 c3        1 MOL     -0.305801
     62 C20        -6.6410   -0.0100   -0.3540 c         1 MOL      0.519254
     63 O10        -7.3820   -0.8370   -0.7360 o         1 MOL     -0.515445
     64 C21        -5.6580    0.5410   -2.5610 c3        1 MOL      0.062689
     65 C22        -4.4840   -0.4200   -2.4150 c         1 MOL      0.482757
     66 N7         -4.3290   -1.2550   -3.4250 n         1 MOL     -0.758066
     67 O11        -3.9180   -0.5630   -1.4020 o         1 MOL     -0.547731
     68 H28        -4.5490    2.3540   -1.3850 hn        1 MOL      0.235084
     69 H29        -7.1920    1.6290   -1.5950 h1        1 MOL      0.144916
     70 H30        -5.2980    1.3160   -3.2280 hc        1 MOL      0.039061
     71 H31        -6.4140    0.0400   -3.1590 hc        1 MOL      0.039061
     72 H32        -4.8060   -1.1380   -4.3030 hn        1 MOL      0.366478
     73 H33        -3.7030   -2.0490   -3.3290 hn        1 MOL      0.366478
     74 N8         -6.1860    0.1160    0.8670 n         1 MOL     -0.183237
     75 C23        -6.4000   -0.8390    1.9870 c3        1 MOL     -0.391705
     76 C24        -5.3340   -1.8640    2.3150 c         1 MOL      0.649025
     77 O12        -5.5190   -2.6530    3.2200 o         1 MOL     -0.576063
     78 H34        -5.4940    0.8410    1.0000 hn        1 MOL      0.247893
     79 H35        -7.3180   -1.3630    1.7520 h1        1 MOL      0.163955
     80 H36        -6.5250   -0.2020    2.8600 h1        1 MOL      0.163955
     81 N9         -4.2690   -1.8810    1.5140 n         1 MOL     -0.352993
     82 C25        -3.2360   -2.8550    1.5970 c3        1 MOL     -0.058175
     83 C26        -1.7980   -2.3010    1.5250 c         1 MOL      0.584897
     84 O13        -1.5290   -1.3070    0.8340 o         1 MOL     -0.674315
     85 C27        -3.4110   -3.8720    0.4400 c3        1 MOL      0.032134
     86 C28        -4.7790   -4.3830    0.2160 ca        1 MOL      0.007656
     87 C29        -5.6260   -3.8330   -0.7500 ca        1 MOL     -0.268638
     88 C30        -5.2480   -5.3870    1.1660 ca        1 MOL     -0.268638
     89 C31        -6.9140   -4.3020   -0.8030 ca        1 MOL     -0.069292
     90 C32        -6.6100   -5.7610    1.1990 ca        1 MOL     -0.069292
     91 C33        -7.4100   -5.2720    0.1340 ca        1 MOL      0.190103
     92 O14        -8.6870   -5.7230    0.0740 oh        1 MOL     -0.488889
     93 H37        -4.2810   -1.2760    0.7080 hn        1 MOL      0.443205
     94 H38        -3.4050   -3.4040    2.5350 h1        1 MOL      0.074149
     95 H39        -2.6930   -4.6950    0.3910 hc        1 MOL      0.010494
     96 H40        -3.1520   -3.2570   -0.4240 hc        1 MOL      0.010494
     97 H41        -5.2200   -3.1290   -1.4580 ha        1 MOL      0.154738
     98 H42        -4.5060   -5.8480    1.7980 ha        1 MOL      0.154738
     99 H43        -7.5420   -4.0830   -1.6570 ha        1 MOL      0.102264
    100 H44        -6.9180   -6.6280    1.7670 ha        1 MOL      0.102264
    101 H45        -8.9460   -6.3770    0.7280 ho        1 MOL      0.380282
    102 N10        -0.8770   -2.9860    2.1940 n         1 MOL     -0.446853
    103 C34         0.5870   -2.6400    2.2240 c3        1 MOL     -0.034828
    104 C35         1.2740   -3.6500    1.3170 c         1 MOL      0.439633
    105 O15         1.1770   -4.8820    1.6130 o         1 MOL     -0.569466
    106 C36         1.2460   -2.5440    3.6010 c3        1 MOL      0.217550
    107 C37         0.5170   -1.4620    4.3670 c3        1 MOL      0.132191
    108 C38         2.7870   -2.3180    3.4990 c3        1 MOL     -0.463404
    109 C39         0.8050   -1.4900    5.9160 c3        1 MOL     -0.187489
    110 H46        -1.2290   -3.5780    2.9350 hn        1 MOL      0.274027
    111 H47         0.7370   -1.6340    1.8260 h1        1 MOL      0.172365
    112 H48         1.0530   -3.4990    4.0950 hc        1 MOL      0.006359
    113 H49        -0.5640   -1.5070    4.2840 hc        1 MOL     -0.031211
    114 H50         0.8020   -0.4510    4.0580 hc        1 MOL     -0.031211
    115 H51         3.1630   -3.1260    2.8800 hc        1 MOL      0.111271
    116 H52         2.8930   -1.3590    2.9920 hc        1 MOL      0.111271
    117 H53         3.1930   -2.3470    4.5070 hc        1 MOL      0.111271
    118 H54         1.8580   -1.3450    6.1750 hc        1 MOL      0.038306
    119 H55         0.1920   -0.7090    6.3520 hc        1 MOL      0.038306
    120 H56         0.5570   -2.5050    6.2180 hc        1 MOL      0.038306
    121 N11         1.9580   -3.2130    0.2860 n         1 MOL     -0.087414
    122 C40         2.7030   -3.9930   -0.6640 c3        1 MOL      0.007081
    123 C41         4.2330   -3.8140   -0.6010 c         1 MOL      0.399864
    124 O16         4.7310   -2.8180   -0.0070 o         1 MOL     -0.454609
    125 C42         2.1960   -3.6360   -2.0690 c3        1 MOL      0.207192
    126 O17         0.8440   -4.0760   -2.3270 oh        1 MOL     -0.611858
    127 H57         1.9500   -2.2190    0.0800 hn        1 MOL      0.179302
    128 H58         2.4890   -5.0420   -0.4560 h1        1 MOL      0.072661
    129 H59         2.7780   -4.1340   -2.8440 h1        1 MOL      0.000686
    130 H60         2.2680   -2.5520   -2.2420 h1        1 MOL      0.000686
    131 H61         0.7010   -4.1100   -3.2730 ho        1 MOL      0.420542
    132 N12         5.0800   -4.7430   -1.1450 n         1 MOL     -0.375564
    133 C43         6.5290   -4.8800   -1.0550 c3        1 MOL      0.058527
    134 C44         7.2530   -3.5800   -1.4450 c         1 MOL      0.489685
    135 O18         8.0790   -3.0700   -0.7040 o         1 MOL     -0.492458
    136 C45         7.0230   -6.0250   -1.9230 c3        1 MOL     -0.268107
    137 H62         4.5460   -5.5160   -1.5110 hn        1 MOL      0.263078
    138 H63         6.7620   -5.1250   -0.0130 h1        1 MOL      0.106526
    139 H64         6.4340   -6.9190   -1.7160 hc        1 MOL      0.090043
    140 H65         6.9710   -5.8640   -3.0060 hc        1 MOL      0.090043
    141 H66         8.0220   -6.3420   -1.6300 hc        1 MOL      0.090043
    142 N13         6.9010   -2.9740   -2.6190 n         1 MOL     -0.392246
    143 C46         7.4380   -1.6810   -2.9820 c3        1 MOL      0.099105
    144 C47         7.1680   -0.5320   -1.9570 c         1 MOL      0.446128
    145 O19         8.1070    0.1030   -1.5380 o         1 MOL     -0.510068
    146 C48         6.7710   -1.2430   -4.3340 c3        1 MOL     -0.340192
    147 H67         6.2120   -3.3310   -3.2700 hn        1 MOL      0.257877
    148 H68         8.5080   -1.7610   -3.1760 h1        1 MOL      0.092295
    149 H69         7.2880   -0.4230   -4.8250 hc        1 MOL      0.093155
    150 H70         6.8360   -2.0940   -5.0060 hc        1 MOL      0.093155
    151 H71         5.6800   -1.1630   -4.3200 hc        1 MOL      0.093155
    152 N14         5.9900   -0.5190   -1.3240 n         1 MOL     -0.129404
    153 C49         5.7420    0.5350   -0.3380 c3        1 MOL     -0.428097
    154 C50         6.4900    0.2210    0.9890 c         1 MOL      0.597872
    155 O20         6.8740    1.1800    1.6640 o         1 MOL     -0.596457
    156 C51         4.1560    0.6420   -0.1440 c3        1 MOL      0.417543
    157 C52         3.2770    0.4110   -1.4360 c3        1 MOL     -0.320004
    158 C53         1.7600    0.4220   -1.1480 c         1 MOL      0.940273
    159 O21         0.9490    1.3560   -1.3400 o         1 MOL     -0.807019
    160 O22         1.2390   -0.6130   -0.7320 o         1 MOL     -0.807019
    161 H72         5.2870   -1.2460   -1.4070 hn        1 MOL      0.136717
    162 H73         6.0760    1.5010   -0.7010 h1        1 MOL      0.181041
    163 H74         3.9900    1.6520    0.2550 hc        1 MOL     -0.104993
    164 H75         3.8220   -0.0970    0.5860 hc        1 MOL     -0.104993
    165 H76         3.5070   -0.5540   -1.9040 hc        1 MOL      0.043172
    166 H77         3.4920    1.2380   -2.1010 hc        1 MOL      0.043172
    167 N15         6.5970   -1.0690    1.4100 n         1 MOL     -0.090895
    168 C54         7.2490   -1.3660    2.6260 c3        1 MOL     -0.389016
    169 H78         7.2110   -2.4400    2.8060 h1        1 MOL      0.131713
    170 H79         8.2890   -1.0440    2.5700 h1        1 MOL      0.131713
    171 H80         6.7500   -0.8440    3.4430 h1        1 MOL      0.131713
    172 H81         6.2360   -1.7960    0.8200 hn        1 MOL      0.194986
    173 Ca1        -1.2130    0.0640   -1.3510 Ca        1 MOL      1.784258
    174 O23        -0.2560    0.0700   -3.9920 oh        1 MOL     -0.920213
    175 H82        -0.8650    0.7490   -4.2800 ho        1 MOL      0.415758
    176 H83         0.3490   -0.0390   -4.7250 ho        1 MOL      0.415758
    177 O24        -1.2100   -2.4580   -2.2660 oh        1 MOL     -0.920213
    178 H84        -0.4530   -2.9510   -1.9740 ho        1 MOL      0.415758
    179 H85        -1.7750   -3.1130   -2.6800 ho        1 MOL      0.415758
@<TRIPOS>BOND
     1    1    2 1   
     2    1    4 1   
     3    1    5 1   
     4    1    6 1   
     5    2    3 2   
     6    2    7 1   
     7    7    8 1   
     8    7   15 1   
     9    8    9 1   
    10    8   11 1   
    11    8   16 1   
    12    9   10 2   
    13    9   19 1   
    14   11   12 1   
    15   11   17 1   
    16   11   18 1   
    17   12   13 1   
    18   12   14 1   
    19   19   20 1   
    20   19   28 1   
    21   20   21 1   
    22   20   23 1   
    23   20   29 1   
    24   21   22 2   
    25   21   41 1   
    26   23   24 1   
    27   23   30 1   
    28   23   31 1   
    29   24   25 1   
    30   24   32 1   
    31   24   33 1   
    32   25   26 1   
    33   25   34 1   
    34   25   35 1   
    35   26   27 1   
    36   26   36 1   
    37   26   37 1   
    38   27   38 1   
    39   27   39 1   
    40   27   40 1   
    41   41   42 1   
    42   41   49 1   
    43   42   43 1   
    44   42   45 1   
    45   42   50 1   
    46   43   44 2   
    47   43   53 1   
    48   45   46 1   
    49   45   51 1   
    50   45   52 1   
    51   46   47 1   
    52   46   48 1   
    53   53   54 1   
    54   53   57 1   
    55   54   55 1   
    56   54   58 1   
    57   54   59 1   
    58   55   56 2   
    59   55   60 1   
    60   60   61 1   
    61   60   68 1   
    62   61   62 1   
    63   61   64 1   
    64   61   69 1   
    65   62   63 2   
    66   62   74 1   
    67   64   65 1   
    68   64   70 1   
    69   64   71 1   
    70   65   66 1   
    71   65   67 2   
    72   66   72 1   
    73   66   73 1   
    74   74   75 1   
    75   74   78 1   
    76   75   76 1   
    77   75   79 1   
    78   75   80 1   
    79   76   77 2   
    80   76   81 1   
    81   81   82 1   
    82   81   93 1   
    83   82   83 1   
    84   82   85 1   
    85   82   94 1   
    86   83   84 2   
    87   83  102 1   
    88   85   86 1   
    89   85   95 1   
    90   85   96 1   
    91   86   87 ar  
    92   86   88 ar  
    93   87   89 ar  
    94   87   97 1   
    95   88   90 ar  
    96   88   98 1   
    97   89   91 ar  
    98   89   99 1   
    99   90   91 ar  
   100   90  100 1   
   101   91   92 1   
   102   92  101 1   
   103  102  103 1   
   104  102  110 1   
   105  103  104 1   
   106  103  106 1   
   107  103  111 1   
   108  104  105 2   
   109  104  121 1   
   110  106  107 1   
   111  106  108 1   
   112  106  112 1   
   113  107  109 1   
   114  107  113 1   
   115  107  114 1   
   116  108  115 1   
   117  108  116 1   
   118  108  117 1   
   119  109  118 1   
   120  109  119 1   
   121  109  120 1   
   122  121  122 1   
   123  121  127 1   
   124  122  123 1   
   125  122  125 1   
   126  122  128 1   
   127  123  124 2   
   128  123  132 1   
   129  125  126 1   
   130  125  129 1   
   131  125  130 1   
   132  126  131 1   
   133  132  133 1   
   134  132  137 1   
   135  133  134 1   
   136  133  136 1   
   137  133  138 1   
   138  134  135 2   
   139  134  142 1   
   140  136  139 1   
   141  136  140 1   
   142  136  141 1   
   143  142  143 1   
   144  142  147 1   
   145  143  144 1   
   146  143  146 1   
   147  143  148 1   
   148  144  145 2   
   149  144  152 1   
   150  146  149 1   
   151  146  150 1   
   152  146  151 1   
   153  152  153 1   
   154  152  161 1   
   155  153  154 1   
   156  153  156 1   
   157  153  162 1   
   158  154  155 2   
   159  154  167 1   
   160  156  157 1   
   161  156  163 1   
   162  156  164 1   
   163  157  158 1   
   164  157  165 1   
   165  157  166 1   
   166  158  159 1   
   167  158  160 1   
   168  167  168 1   
   169  167  172 1   
   170  168  169 1   
   171  168  170 1   
   172  168  171 1   
   173  174  175 1   
   174  174  176 1   
   175  177  178 1   
   176  177  179 1   
@<TRIPOS>SUBSTRUCTURE
     1 MOL         1 TEMP              0 ****  ****    0 ROOT
