@<TRIPOS>MOLECULE
MOL
  189   185     1     0     0
SMALL
resp


@<TRIPOS>ATOM
      1 C1         -0.8440    1.3440    6.3880 c3        1 MOL     -0.214469
      2 C2         -0.8920    1.0190    4.8810 c         1 MOL      0.727200
      3 O1          0.0080    1.4270    4.1940 o         1 MOL     -0.607569
      4 H1         -0.8300    0.4160    6.9600 hc        1 MOL      0.048929
      5 H2          0.0550    1.9190    6.6080 hc        1 MOL      0.048929
      6 H3         -1.7230    1.9260    6.6630 hc        1 MOL      0.048929
      7 N1         -1.9640    0.3270    4.4540 n         1 MOL     -0.594908
      8 C3         -2.3020    0.5820    3.0470 c3        1 MOL      0.247789
      9 C4         -2.8040    2.0930    2.9100 c         1 MOL      0.379389
     10 O2         -3.7310    2.5000    3.6490 o         1 MOL     -0.545180
     11 C5         -3.4090   -0.3580    2.6160 c3        1 MOL     -0.281643
     12 C6         -4.1010    0.0100    1.2940 c         1 MOL      0.714970
     13 O3         -5.3170   -0.2080    1.1650 o         1 MOL     -0.670380
     14 O4         -3.4450    0.5830    0.4290 o         1 MOL     -0.670380
     15 H4         -2.7100    0.0960    5.1040 hn        1 MOL      0.328084
     16 H5         -1.4390    0.4030    2.4150 h1        1 MOL      0.011323
     17 H6         -4.1420   -0.4150    3.4350 hc        1 MOL      0.052765
     18 H7         -2.9140   -1.3300    2.6710 hc        1 MOL      0.052765
     19 N2         -2.1100    2.8150    2.0730 n         1 MOL     -0.066872
     20 C7         -2.1950    4.2940    2.0770 c3        1 MOL     -0.048096
     21 C8         -3.2190    4.6610    1.0450 c         1 MOL      0.367965
     22 O5         -3.6480    5.8070    1.1340 o         1 MOL     -0.555246
     23 C9         -0.7560    4.9590    1.9500 c3        1 MOL     -0.142982
     24 C10        -0.2520    5.2970    0.5660 c3        1 MOL     -0.024410
     25 C11         1.1410    5.8390    0.5050 c3        1 MOL     -0.011613
     26 C12         1.6020    6.2170   -0.9210 c3        1 MOL      0.056129
     27 N3          2.7570    7.1680   -0.7640 n4        1 MOL     -0.367353
     28 H8         -1.2330    2.4210    1.7310 hn        1 MOL      0.115968
     29 H9         -2.5950    4.6740    3.0230 h1        1 MOL      0.108920
     30 H10         0.0020    4.3110    2.3880 hc        1 MOL      0.067787
     31 H11        -0.5650    5.8270    2.5860 hc        1 MOL      0.067787
     32 H12        -0.9940    5.9480    0.1050 hc        1 MOL      0.078068
     33 H13        -0.3160    4.3760   -0.0070 hc        1 MOL      0.078068
     34 H14         1.8810    5.1550    0.9260 hc        1 MOL      0.008890
     35 H15         1.1060    6.7300    1.1370 hc        1 MOL      0.008890
     36 H16         0.7530    6.6570   -1.4470 hx        1 MOL      0.089023
     37 H17         1.9000    5.3000   -1.4460 hx        1 MOL      0.089023
     38 H18         2.5960    7.9140   -0.0990 hn        1 MOL      0.319595
     39 H19         3.5910    6.7210   -0.4040 hn        1 MOL      0.319595
     40 H20         2.9240    7.6700   -1.6250 hn        1 MOL      0.319595
     41 N4         -3.4800    3.8380    0.0250 n         1 MOL      0.217245
     42 C13        -4.3620    4.0880   -1.0970 c3        1 MOL     -0.373396
     43 C14        -5.8300    3.5490   -1.0340 c         1 MOL      0.551231
     44 O6         -6.6410    3.9600   -1.8470 o         1 MOL     -0.504404
     45 C15        -3.8300    3.3820   -2.3130 c3        1 MOL      0.073804
     46 C16        -2.3190    3.3390   -2.4040 c         1 MOL      0.622949
     47 O7         -1.7300    2.3630   -1.8740 o         1 MOL     -0.675531
     48 O8         -1.7590    4.3280   -2.9290 o         1 MOL     -0.675531
     49 H21        -3.0380    2.9290    0.0700 hn        1 MOL     -0.209102
     50 H22        -4.3680    5.1280   -1.4230 h1        1 MOL      0.136762
     51 H23        -4.3570    3.5450   -3.2580 hc        1 MOL      0.013991
     52 H24        -4.1690    2.3610   -2.1500 hc        1 MOL      0.013991
     53 N5         -6.1340    2.7000   -0.0440 n         1 MOL     -0.342298
     54 C17        -7.4300    2.0190    0.0830 c3        1 MOL     -0.237813
     55 C18        -7.7090    0.9260   -0.9850 c         1 MOL      0.479923
     56 O9         -8.7700    0.8490   -1.6090 o         1 MOL     -0.572504
     57 H25        -5.4270    2.3710    0.5890 hn        1 MOL      0.287071
     58 H26        -8.1710    2.8140   -0.0510 h1        1 MOL      0.123132
     59 H27        -7.4460    1.5460    1.0660 h1        1 MOL      0.123132
     60 N6         -6.7260    0.1020   -1.2840 n         1 MOL     -0.296622
     61 C19        -6.7480   -1.0050   -2.3080 c3        1 MOL     -0.013573
     62 C20        -6.7520   -2.4150   -1.7880 c         1 MOL      0.369548
     63 O10        -6.7800   -3.4100   -2.4760 o         1 MOL     -0.523642
     64 C21        -5.7430   -0.6310   -3.3750 c3        1 MOL     -0.230439
     65 C22        -4.2630   -0.6330   -2.8550 c         1 MOL      0.753027
     66 O11        -3.4410    0.0600   -3.5320 o         1 MOL     -0.739878
     67 O12        -3.9020   -1.3150   -1.8400 o         1 MOL     -0.739878
     68 H28        -5.8570    0.2410   -0.7730 hn        1 MOL      0.454877
     69 H29        -7.7350   -0.9160   -2.7670 h1        1 MOL      0.119072
     70 H30        -5.9400    0.4110   -3.6150 hc        1 MOL      0.074029
     71 H31        -5.8390   -1.2250   -4.2880 hc        1 MOL      0.074029
     72 N7         -6.6370   -2.5540   -0.4660 n         1 MOL     -0.096374
     73 C23        -6.7580   -3.7970    0.3050 c3        1 MOL     -0.187638
     74 C24        -5.3820   -4.5030    0.3720 c         1 MOL      0.541663
     75 O13        -5.3240   -5.7180    0.6500 o         1 MOL     -0.553283
     76 H32        -6.6270   -1.6820    0.0380 hn        1 MOL      0.118832
     77 H33        -7.5060   -4.5120   -0.0520 h1        1 MOL      0.105039
     78 H34        -6.9640   -3.4760    1.3230 h1        1 MOL      0.105039
     79 N8         -4.2950   -3.7760    0.0250 n         1 MOL     -0.249549
     80 C25        -2.9950   -4.3460   -0.1310 c3        1 MOL     -0.223867
     81 C26        -1.8250   -3.3760    0.3210 c         1 MOL      0.652587
     82 O14        -1.8730   -2.1710    0.0400 o         1 MOL     -0.619849
     83 C27        -2.7320   -4.9250   -1.5550 c3        1 MOL      0.416885
     84 C28        -3.5200   -6.1690   -1.9910 c3        1 MOL     -0.556801
     85 O15        -3.0210   -4.0500   -2.5650 oh        1 MOL     -0.607500
     86 H35        -4.3610   -2.7840   -0.1160 hn        1 MOL      0.195817
     87 H36        -2.9990   -5.2100    0.5450 h1        1 MOL      0.092033
     88 H37        -1.6570   -5.0980   -1.5460 h1        1 MOL     -0.001052
     89 H38        -3.8170   -3.5680   -2.3290 ho        1 MOL      0.414224
     90 H39        -3.3550   -6.3840   -3.0480 hc        1 MOL      0.151213
     91 H40        -3.2120   -7.0630   -1.4340 hc        1 MOL      0.151213
     92 H41        -4.5950   -6.0660   -1.9490 hc        1 MOL      0.151213
     93 N9         -0.7520   -3.8480    0.9080 n         1 MOL     -0.491679
     94 C29         0.4700   -3.1360    1.3110 c3        1 MOL      0.100860
     95 C30         1.6080   -3.5380    0.3980 c         1 MOL      0.444436
     96 O16         1.9410   -4.6920    0.4150 o         1 MOL     -0.547648
     97 C31         0.7820   -3.4340    2.8310 c3        1 MOL     -0.026998
     98 C32        -0.3910   -2.8820    3.5860 c3        1 MOL      0.207863
     99 C33         2.1150   -2.8150    3.2710 c3        1 MOL     -0.205200
    100 C34        -0.4250   -3.0450    5.1120 c3        1 MOL     -0.398038
    101 H42        -0.8160   -4.8270    1.1690 hn        1 MOL      0.274125
    102 H43         0.3100   -2.0580    1.2210 h1        1 MOL      0.029214
    103 H44         0.8470   -4.5270    2.8810 hc        1 MOL      0.034944
    104 H45        -1.3180   -3.2710    3.1670 hc        1 MOL     -0.004562
    105 H46        -0.4640   -1.8090    3.4330 hc        1 MOL     -0.004562
    106 H47         2.3280   -3.1960    4.2770 hc        1 MOL      0.051454
    107 H48         2.8930   -3.1570    2.5950 hc        1 MOL      0.051454
    108 H49         2.0940   -1.7290    3.3280 hc        1 MOL      0.051454
    109 H50         0.3840   -2.4360    5.5150 hc        1 MOL      0.093450
    110 H51        -1.3950   -2.6770    5.4220 hc        1 MOL      0.093450
    111 H52        -0.3020   -4.1070    5.3340 hc        1 MOL      0.093450
    112 N10         2.3130   -2.5870   -0.2480 n         1 MOL     -0.053807
    113 C35         3.5550   -2.7340   -1.0410 c3        1 MOL      0.027910
    114 C36         4.8460   -2.3880   -0.3470 c         1 MOL      0.282140
    115 O17         4.8050   -1.7690    0.7260 o         1 MOL     -0.217751
    116 C37         3.4450   -1.9450   -2.3440 c3        1 MOL      0.165421
    117 C38         2.2790   -2.3040   -3.3510 c3        1 MOL     -0.222025
    118 O18         3.2270   -0.5520   -2.0470 oh        1 MOL     -0.601096
    119 H53         1.9030   -1.6700   -0.1750 hn        1 MOL      0.094398
    120 H54         3.6770   -3.7910   -1.2830 h1        1 MOL      0.050563
    121 H55         4.4220   -2.0740   -2.8160 h1        1 MOL      0.025830
    122 H56         2.4060   -0.3650   -1.5990 ho        1 MOL      0.348277
    123 H57         2.2660   -1.5840   -4.1680 hc        1 MOL      0.065131
    124 H58         2.3470   -3.2750   -3.8500 hc        1 MOL      0.065131
    125 H59         1.3970   -2.3030   -2.7190 hc        1 MOL      0.065131
    126 N11         6.0290   -2.6280   -0.9080 n         1 MOL     -0.334545
    127 C39         7.3490   -2.2070   -0.2880 c3        1 MOL     -0.072489
    128 C40         7.3530   -0.8230    0.2960 c         1 MOL      0.238477
    129 O19         7.7750   -0.5100    1.3940 o         1 MOL     -0.435207
    130 C41         8.5400   -2.4020   -1.2760 c3        1 MOL      0.173485
    131 C42         8.7070   -3.8340   -1.7250 c3        1 MOL     -0.551609
    132 O20         8.3030   -1.5920   -2.4400 oh        1 MOL     -0.584662
    133 H60         6.0350   -3.0580   -1.8260 hn        1 MOL      0.287098
    134 H61         7.6270   -2.8740    0.5270 h1        1 MOL      0.146092
    135 H62         9.4680   -2.0870   -0.8140 h1        1 MOL      0.095392
    136 H63         9.1480   -1.6770   -2.8920 ho        1 MOL      0.396324
    137 H64         8.0860   -4.1690   -2.5570 hc        1 MOL      0.166198
    138 H65         9.7370   -3.8760   -2.0550 hc        1 MOL      0.166198
    139 H66         8.7210   -4.4480   -0.8320 hc        1 MOL      0.166198
    140 N12         6.7940    0.0730   -0.5250 n         1 MOL     -0.008892
    141 C43         6.5930    1.4590   -0.2420 c3        1 MOL     -0.070289
    142 C44         5.8230    1.7160    1.0720 c         1 MOL      0.392975
    143 O21         6.1940    2.6500    1.8120 o         1 MOL     -0.522461
    144 C45         5.8610    2.1280   -1.4410 c3        1 MOL     -0.350128
    145 C46         6.2670    1.7060   -2.8770 c3        1 MOL     -0.154448
    146 C47         7.7190    2.1910   -3.1980 c3        1 MOL      0.190174
    147 C48         8.0710    2.1180   -4.6780 c3        1 MOL      0.076373
    148 N13         9.3860    2.7040   -5.0100 n4        1 MOL     -0.326331
    149 H67         6.4580   -0.3650   -1.3660 hn        1 MOL      0.250965
    150 H68         7.5730    1.9460   -0.2650 h1        1 MOL      0.075901
    151 H69         5.9360    3.2170   -1.4740 hc        1 MOL      0.136735
    152 H70         4.7810    1.9840   -1.4090 hc        1 MOL      0.136735
    153 H71         5.6570    2.2670   -3.5790 hc        1 MOL      0.074584
    154 H72         6.2360    0.6180   -2.9350 hc        1 MOL      0.074584
    155 H73         8.3530    1.4270   -2.7470 hc        1 MOL     -0.035359
    156 H74         7.9470    3.2080   -2.8800 hc        1 MOL     -0.035359
    157 H75         7.3350    2.7130   -5.2110 hx        1 MOL      0.051125
    158 H76         7.9440    1.0810   -4.9920 hx        1 MOL      0.051125
    159 H77         9.5510    2.7140   -6.0040 hn        1 MOL      0.284579
    160 H78         9.4980    3.6750   -4.7410 hn        1 MOL      0.284579
    161 H79        10.1730    2.1460   -4.6950 hn        1 MOL      0.284579
    162 N14         4.8630    0.8150    1.4320 n         1 MOL     -0.123115
    163 C49         3.9560    0.8900    2.5880 c3        1 MOL     -0.077269
    164 C50         4.3980   -0.0260    3.7480 c         1 MOL      0.483322
    165 O22         4.1420    0.1350    4.9350 o         1 MOL     -0.541582
    166 C51         2.5760    0.4700    2.0650 c3        1 MOL      0.104044
    167 C52         1.9790    1.5090    0.9620 c3        1 MOL     -0.220633
    168 C53         0.7740    0.8560    0.2270 c         1 MOL      0.724411
    169 O23         0.9250   -0.1300   -0.5190 o         1 MOL     -0.703006
    170 O24        -0.3520    1.3790    0.3140 o         1 MOL     -0.703006
    171 H80         4.7730    0.0330    0.7990 hn        1 MOL      0.052104
    172 H81         3.8370    1.8800    3.0210 h1        1 MOL      0.086037
    173 H82         1.9470    0.5220    2.9590 hc        1 MOL      0.053617
    174 H83         2.6420   -0.5450    1.6610 hc        1 MOL      0.053617
    175 H84         2.7070    1.9250    0.2720 hc        1 MOL      0.059853
    176 H85         1.6340    2.4180    1.4550 hc        1 MOL      0.059853
    177 N15         5.1730   -1.0700    3.4000 n         1 MOL     -0.168697
    178 C54         5.7930   -2.0290    4.3220 c3        1 MOL     -0.199760
    179 H86         5.3720   -3.0200    4.1510 h1        1 MOL      0.084948
    180 H87         6.8680   -2.0570    4.1500 h1        1 MOL      0.084948
    181 H88         5.5960   -1.7240    5.3500 h1        1 MOL      0.084948
    182 H89         5.1850   -1.3150    2.4240 hn        1 MOL      0.133173
    183 Ca1        -1.6620   -0.0080   -1.3870 Ca        1 MOL      1.731135
    184 O25        -0.0420    0.6360   -3.5140 oh        1 MOL     -0.781963
    185 H90         0.3070    0.3860   -4.3660 ho        1 MOL      0.383811
    186 H91         0.0660    1.5820   -3.4820 ho        1 MOL      0.383811
    187 O26        -1.4340   -1.9720   -3.2620 oh        1 MOL     -0.781963
    188 H92        -1.9460   -2.7770   -3.2310 ho        1 MOL      0.383811
    189 H93        -1.2100   -1.8470   -4.1850 ho        1 MOL      0.383811
@<TRIPOS>BOND
     1    1    2 1   
     2    1    4 1   
     3    1    5 1   
     4    1    6 1   
     5    2    3 2   
     6    2    7 1   
     7    7    8 1   
     8    7   15 1   
     9    8    9 1   
    10    8   11 1   
    11    8   16 1   
    12    9   10 2   
    13    9   19 1   
    14   11   12 1   
    15   11   17 1   
    16   11   18 1   
    17   12   13 1   
    18   12   14 1   
    19   19   20 1   
    20   19   28 1   
    21   20   21 1   
    22   20   23 1   
    23   20   29 1   
    24   21   22 2   
    25   21   41 1   
    26   23   24 1   
    27   23   30 1   
    28   23   31 1   
    29   24   25 1   
    30   24   32 1   
    31   24   33 1   
    32   25   26 1   
    33   25   34 1   
    34   25   35 1   
    35   26   27 1   
    36   26   36 1   
    37   26   37 1   
    38   27   38 1   
    39   27   39 1   
    40   27   40 1   
    41   41   42 1   
    42   41   49 1   
    43   42   43 1   
    44   42   45 1   
    45   42   50 1   
    46   43   44 2   
    47   43   53 1   
    48   45   46 1   
    49   45   51 1   
    50   45   52 1   
    51   46   47 1   
    52   46   48 1   
    53   53   54 1   
    54   53   57 1   
    55   54   55 1   
    56   54   58 1   
    57   54   59 1   
    58   55   56 2   
    59   55   60 1   
    60   60   61 1   
    61   60   68 1   
    62   61   62 1   
    63   61   64 1   
    64   61   69 1   
    65   62   63 2   
    66   62   72 1   
    67   64   65 1   
    68   64   70 1   
    69   64   71 1   
    70   65   66 1   
    71   65   67 1   
    72   72   73 1   
    73   72   76 1   
    74   73   74 1   
    75   73   77 1   
    76   73   78 1   
    77   74   75 2   
    78   74   79 1   
    79   79   80 1   
    80   79   86 1   
    81   80   81 1   
    82   80   83 1   
    83   80   87 1   
    84   81   82 2   
    85   81   93 1   
    86   83   84 1   
    87   83   85 1   
    88   83   88 1   
    89   84   90 1   
    90   84   91 1   
    91   84   92 1   
    92   85   89 1   
    93   93   94 1   
    94   93  101 1   
    95   94   95 1   
    96   94   97 1   
    97   94  102 1   
    98   95   96 2   
    99   95  112 1   
   100   97   98 1   
   101   97   99 1   
   102   97  103 1   
   103   98  100 1   
   104   98  104 1   
   105   98  105 1   
   106   99  106 1   
   107   99  107 1   
   108   99  108 1   
   109  100  109 1   
   110  100  110 1   
   111  100  111 1   
   112  112  113 1   
   113  112  119 1   
   114  113  114 1   
   115  113  116 1   
   116  113  120 1   
   117  114  115 2   
   118  114  126 1   
   119  116  117 1   
   120  116  118 1   
   121  116  121 1   
   122  117  123 1   
   123  117  124 1   
   124  117  125 1   
   125  118  122 1   
   126  126  127 1   
   127  126  133 1   
   128  127  128 1   
   129  127  130 1   
   130  127  134 1   
   131  128  129 2   
   132  128  140 1   
   133  130  131 1   
   134  130  132 1   
   135  130  135 1   
   136  131  137 1   
   137  131  138 1   
   138  131  139 1   
   139  132  136 1   
   140  140  141 1   
   141  140  149 1   
   142  141  142 1   
   143  141  144 1   
   144  141  150 1   
   145  142  143 2   
   146  142  162 1   
   147  144  145 1   
   148  144  151 1   
   149  144  152 1   
   150  145  146 1   
   151  145  153 1   
   152  145  154 1   
   153  146  147 1   
   154  146  155 1   
   155  146  156 1   
   156  147  148 1   
   157  147  157 1   
   158  147  158 1   
   159  148  159 1   
   160  148  160 1   
   161  148  161 1   
   162  162  163 1   
   163  162  171 1   
   164  163  164 1   
   165  163  166 1   
   166  163  172 1   
   167  164  165 2   
   168  164  177 1   
   169  166  167 1   
   170  166  173 1   
   171  166  174 1   
   172  167  168 1   
   173  167  175 1   
   174  167  176 1   
   175  168  169 1   
   176  168  170 1   
   177  177  178 1   
   178  177  182 1   
   179  178  179 1   
   180  178  180 1   
   181  178  181 1   
   182  184  185 1   
   183  184  186 1   
   184  187  188 1   
   185  187  189 1   
@<TRIPOS>SUBSTRUCTURE
     1 MOL         1 TEMP              0 ****  ****    0 ROOT
