@<TRIPOS>MOLECULE
MOL
  186   183     1     0     0
SMALL
resp


@<TRIPOS>ATOM
      1 C1          0.3420   -1.4450    6.4210 c3        1 MOL     -0.321779
      2 C2          0.9290   -1.8120    4.9470 c         1 MOL      0.753904
      3 O1          0.2010   -2.4850    4.2190 o         1 MOL     -0.595078
      4 H1          0.9460   -1.9360    7.1840 hc        1 MOL      0.072544
      5 H2          0.3770   -0.3650    6.5680 hc        1 MOL      0.072544
      6 H3         -0.6900   -1.7900    6.4970 hc        1 MOL      0.072544
      7 N1          2.1220   -1.3010    4.5730 n         1 MOL     -0.699964
      8 C3          2.6930   -1.3800    3.2450 c3        1 MOL      0.389630
      9 C4          2.9400   -2.8980    2.7960 c         1 MOL      0.359702
     10 O2          3.6260   -3.6550    3.5070 o         1 MOL     -0.554321
     11 C5          3.9840   -0.6020    3.2330 c3        1 MOL     -0.312680
     12 C6          4.5810   -0.4660    1.8620 c         1 MOL      0.767876
     13 O3          5.8450   -0.2800    1.7980 o         1 MOL     -0.663116
     14 O4          3.8300   -0.5230    0.8640 o         1 MOL     -0.663116
     15 H4          2.6100   -0.6640    5.1920 hn        1 MOL      0.321687
     16 H5          1.9390   -0.9900    2.5590 h1        1 MOL      0.007869
     17 H6          4.6870   -1.0230    3.9420 hc        1 MOL      0.056844
     18 H7          3.7580    0.4250    3.5310 hc        1 MOL      0.056844
     19 N2          2.2730   -3.3850    1.7450 n         1 MOL     -0.119257
     20 C7          2.3560   -4.7350    1.2910 c3        1 MOL     -0.066853
     21 C8          3.5950   -4.9020    0.3990 c         1 MOL      0.471358
     22 O5          4.3420   -5.8900    0.4490 o         1 MOL     -0.605414
     23 C9          0.9940   -5.2410    0.7190 c3        1 MOL      0.355770
     24 C10         0.1150   -5.4480    1.9790 c3        1 MOL     -0.015289
     25 C11         1.1830   -6.5130   -0.2250 c3        1 MOL     -0.258079
     26 C12        -1.1260   -6.1510    1.5390 c3        1 MOL     -0.020546
     27 H8          1.6690   -2.7580    1.2240 hn        1 MOL      0.121513
     28 H9          2.5500   -5.3810    2.1550 h1        1 MOL      0.038633
     29 H10         0.5430   -4.4830    0.0820 hc        1 MOL     -0.051934
     30 H11        -0.1300   -4.5050    2.4580 hc        1 MOL      0.001456
     31 H12         0.6710   -6.0300    2.7240 hc        1 MOL      0.001456
     32 H13         0.2530   -7.0070   -0.5270 hc        1 MOL      0.047957
     33 H14         1.6440   -6.1520   -1.1360 hc        1 MOL      0.047957
     34 H15         1.8310   -7.1820    0.3520 hc        1 MOL      0.047957
     35 H16        -0.8780   -7.2080    1.4440 hc        1 MOL     -0.013250
     36 H17        -1.8680   -6.1480    2.3420 hc        1 MOL     -0.013250
     37 H18        -1.5550   -5.7850    0.6090 hc        1 MOL     -0.013250
     38 N3          3.8930   -3.9770   -0.5080 n         1 MOL     -0.218778
     39 C13         4.8460   -4.1770   -1.6530 c3        1 MOL      0.051137
     40 C14         6.1440   -3.3040   -1.5210 c         1 MOL      0.389319
     41 O6          6.9570   -3.2260   -2.4570 o         1 MOL     -0.484682
     42 C15         4.1890   -4.0360   -3.0080 c3        1 MOL     -0.333432
     43 C16         3.5880   -2.5870   -3.2810 c         1 MOL      0.816096
     44 O7          3.4490   -1.7200   -2.3620 o         1 MOL     -0.691513
     45 O8          3.2320   -2.2850   -4.3900 o         1 MOL     -0.691513
     46 H19         3.2880   -3.1680   -0.5870 hn        1 MOL      0.108435
     47 H20         5.1970   -5.2030   -1.5790 h1        1 MOL      0.103097
     48 H21         3.4670   -4.8460   -3.1170 hc        1 MOL      0.076959
     49 H22         4.9690   -4.1790   -3.7630 hc        1 MOL      0.076959
     50 N4          6.3880   -2.7620   -0.3170 n         1 MOL     -0.352596
     51 C17         7.6470   -2.0110   -0.0660 c3        1 MOL     -0.011714
     52 C18         7.9240   -0.6480   -0.7870 c         1 MOL      0.367293
     53 O9          9.0330   -0.4270   -1.3400 o         1 MOL     -0.571580
     54 H23         5.6230   -2.6590    0.3270 hn        1 MOL      0.271612
     55 H24         8.4920   -2.6750   -0.2550 h1        1 MOL      0.061688
     56 H25         7.5860   -1.9050    1.0170 h1        1 MOL      0.061688
     57 N5          6.9250    0.2340   -0.9540 n         1 MOL      0.081065
     58 C19         7.0140    1.5440   -1.5650 c3        1 MOL     -0.047945
     59 C20         7.0640    2.7030   -0.5790 c         1 MOL      0.444889
     60 O10         7.3780    3.7950   -0.9750 o         1 MOL     -0.540876
     61 C21         6.0030    1.7060   -2.7290 c3        1 MOL     -0.195950
     62 C22         4.5700    1.4360   -2.2430 c         1 MOL      0.725764
     63 O11         4.1540    1.7850   -1.1010 o         1 MOL     -0.734096
     64 O12         3.7250    1.0200   -3.1040 o         1 MOL     -0.734096
     65 H26         6.1110    0.1000   -0.3710 hn        1 MOL     -0.076135
     66 H27         7.9940    1.5560   -2.0500 h1        1 MOL      0.078236
     67 H28         6.1270    0.9950   -3.5340 hc        1 MOL      0.067640
     68 H29         6.0760    2.7240   -3.1210 hc        1 MOL      0.067640
     69 N6          6.8250    2.4270    0.7340 n         1 MOL     -0.269051
     70 C23         6.6480    3.3990    1.7980 c3        1 MOL     -0.103171
     71 C24         5.3380    4.2160    1.7410 c         1 MOL      0.476022
     72 O13         5.2600    5.3110    2.2880 o         1 MOL     -0.609925
     73 H30         6.6520    1.4470    0.9070 hn        1 MOL      0.198020
     74 H31         7.5570    3.9940    1.8340 h1        1 MOL      0.076779
     75 H32         6.5890    2.8180    2.7140 h1        1 MOL      0.076779
     76 N7          4.3720    3.7250    1.0430 n         1 MOL     -0.145879
     77 C25         3.0260    4.3380    1.0460 c3        1 MOL     -0.160476
     78 C26         1.9770    3.1900    1.3020 c         1 MOL      0.523418
     79 O14         2.2300    2.0040    1.0810 o         1 MOL     -0.620741
     80 C27         2.8030    5.0980   -0.2990 c3        1 MOL     -0.031404
     81 C28         3.6320    6.4200   -0.2480 c3        1 MOL     -0.190516
     82 C29         3.3160    7.3620   -1.4000 c         1 MOL      0.619315
     83 N8          3.9440    7.1660   -2.5250 n         1 MOL     -0.806522
     84 O15         2.3730    8.1510   -1.3850 o         1 MOL     -0.589770
     85 H33         4.5500    2.8440    0.5840 hn        1 MOL      0.255362
     86 H34         2.9050    5.1190    1.8010 h1        1 MOL      0.103713
     87 H35         1.7590    5.3650   -0.4710 hc        1 MOL      0.062900
     88 H36         3.1900    4.4910   -1.1190 hc        1 MOL      0.062900
     89 H37         4.7030    6.2520   -0.1210 hc        1 MOL      0.076927
     90 H38         3.3510    7.0410    0.5970 hc        1 MOL      0.076927
     91 H39         4.6120    6.4110   -2.5420 hn        1 MOL      0.373177
     92 H40         3.5820    7.6590   -3.3340 hn        1 MOL      0.373177
     93 N9          0.7750    3.6100    1.5840 n         1 MOL     -0.334624
     94 C30        -0.3680    2.7320    1.6180 c3        1 MOL     -0.021198
     95 C31        -1.3210    3.1260    0.5070 c         1 MOL      0.359886
     96 O16        -1.7290    4.3200    0.4390 o         1 MOL     -0.562456
     97 C32        -1.0110    2.6180    3.0050 c3        1 MOL      0.430150
     98 C33        -1.8960    1.4180    3.2030 c3        1 MOL     -0.390165
     99 C34        -0.1440    2.7220    4.2140 c3        1 MOL     -0.390165
    100 H41         0.7620    4.6010    1.7730 hn        1 MOL      0.243356
    101 H42         0.0070    1.7450    1.3380 h1        1 MOL      0.093118
    102 H43        -1.6890    3.4660    3.1260 hc        1 MOL     -0.075553
    103 H44        -2.4100    1.5240    4.1630 hc        1 MOL      0.075419
    104 H45        -2.6370    1.3040    2.4170 hc        1 MOL      0.075419
    105 H46        -1.2000    0.5810    3.2080 hc        1 MOL      0.075419
    106 H47         0.6610    1.9920    4.1730 hc        1 MOL      0.075419
    107 H48         0.3390    3.6970    4.1800 hc        1 MOL      0.075419
    108 H49        -0.6690    2.6430    5.1640 hc        1 MOL      0.075419
    109 N10        -1.7350    2.1370   -0.3400 n         1 MOL     -0.058274
    110 C35        -2.9640    2.2100   -1.2030 c3        1 MOL     -0.225031
    111 C36        -4.2600    2.0210   -0.3870 c         1 MOL      0.628166
    112 O17        -4.2110    1.3950    0.6600 o         1 MOL     -0.415770
    113 C37        -2.7670    1.1670   -2.3370 c3        1 MOL     -0.069416
    114 C38        -3.5780    1.4140   -3.6120 c         1 MOL      0.650713
    115 N11        -3.3070    0.6250   -4.6170 n         1 MOL     -0.779023
    116 O18        -4.4940    2.2050   -3.6230 o         1 MOL     -0.592323
    117 H50        -1.3620    1.2090   -0.2170 hn        1 MOL      0.291344
    118 H51        -2.9510    3.2380   -1.5560 h1        1 MOL      0.096585
    119 H52        -3.0530    0.1860   -1.9570 hc        1 MOL      0.057171
    120 H53        -1.7090    1.0440   -2.5870 hc        1 MOL      0.057171
    121 H54        -2.5710   -0.0710   -4.5730 hn        1 MOL      0.378527
    122 H55        -3.9820    0.6370   -5.3610 hn        1 MOL      0.378527
    123 N12        -5.4340    2.3140   -0.9170 n         1 MOL     -0.637054
    124 C39        -6.7410    1.9250   -0.3260 c3        1 MOL      0.203206
    125 C40        -6.9520    0.3890   -0.3310 c         1 MOL      0.594860
    126 O19        -7.3200   -0.1270    0.7410 o         1 MOL     -0.500107
    127 C41        -7.8380    2.5790   -1.0910 c3        1 MOL     -0.185555
    128 C42        -9.1810    2.3090   -0.4490 ca        1 MOL      0.229531
    129 C43        -9.4120    2.6200    0.9190 ca        1 MOL     -0.411341
    130 C44       -10.2160    1.7640   -1.2790 ca        1 MOL     -0.411341
    131 C45       -10.6510    2.2800    1.4990 ca        1 MOL      0.028400
    132 C46       -11.4020    1.4740   -0.6720 ca        1 MOL      0.028400
    133 C47       -11.6830    1.7280    0.6750 ca        1 MOL      0.074291
    134 O20       -12.8060    1.2760    1.3110 oh        1 MOL     -0.478224
    135 H56        -5.4810    2.6550   -1.8700 hn        1 MOL      0.341440
    136 H57        -6.7810    2.1330    0.7470 h1        1 MOL      0.075352
    137 H58        -7.7980    2.3410   -2.1510 hc        1 MOL      0.070882
    138 H59        -7.7270    3.6650   -1.1370 hc        1 MOL      0.070882
    139 H60        -8.7340    3.0830    1.6160 ha        1 MOL      0.191525
    140 H61        -9.8710    1.4650   -2.2570 ha        1 MOL      0.191525
    141 H62       -10.8870    2.7360    2.4540 ha        1 MOL      0.079706
    142 H63       -12.1810    1.0740   -1.2990 ha        1 MOL      0.079706
    143 H64       -13.5020    0.8400    0.8040 ho        1 MOL      0.375859
    144 N13        -6.4800   -0.3790   -1.3630 n         1 MOL     -0.708612
    145 C48        -6.3170   -1.8290   -1.4370 c3        1 MOL      0.509194
    146 C49        -5.4550   -2.3420   -0.2550 c         1 MOL     -0.001281
    147 O21        -5.7030   -3.4210    0.3090 o         1 MOL     -0.476134
    148 C50        -5.5590   -2.1680   -2.7310 c3        1 MOL     -0.296324
    149 C51        -5.1170   -3.6690   -2.8700 c3        1 MOL     -0.117715
    150 C52        -4.4720   -4.1000   -4.2390 c         1 MOL      0.665619
    151 O22        -3.3500   -4.7070   -4.2530 o         1 MOL     -0.716588
    152 O23        -5.2410   -4.0190   -5.2960 o         1 MOL     -0.716588
    153 H65        -6.2670    0.1640   -2.1770 hn        1 MOL      0.327268
    154 H66        -7.3070   -2.2690   -1.3760 h1        1 MOL      0.031584
    155 H67        -4.6910   -1.5150   -2.8450 hc        1 MOL      0.044025
    156 H68        -6.2010   -2.0200   -3.6080 hc        1 MOL      0.044025
    157 H69        -5.9710   -4.2970   -2.6280 hc        1 MOL      0.042093
    158 H70        -4.3460   -3.9100   -2.1400 hc        1 MOL      0.042093
    159 N14        -4.4620   -1.5800    0.2570 n         1 MOL      0.326242
    160 C53        -3.6360   -2.0170    1.3540 c3        1 MOL     -0.001156
    161 C54        -4.2600   -1.6260    2.6550 c         1 MOL      0.329930
    162 O24        -4.1450   -2.3760    3.6300 o         1 MOL     -0.545410
    163 C55        -2.2820   -1.4320    1.1970 c3        1 MOL      0.083464
    164 C56        -1.4420   -2.1290    0.0960 c3        1 MOL     -0.249943
    165 C57        -0.1680   -1.3620   -0.0420 c         1 MOL      0.785990
    166 O25         1.0040   -1.8620   -0.1340 o         1 MOL     -0.779399
    167 O26        -0.2220   -0.1090   -0.0920 o         1 MOL     -0.779399
    168 H71        -4.5360   -0.6100   -0.0240 hn        1 MOL     -0.245612
    169 H72        -3.5680   -3.0980    1.4110 h1        1 MOL      0.091854
    170 H73        -1.7560   -1.5430    2.1370 hc        1 MOL      0.036068
    171 H74        -2.3730   -0.3680    0.9780 hc        1 MOL      0.036068
    172 H75        -2.0280   -2.1980   -0.8230 hc        1 MOL      0.080485
    173 H76        -1.2540   -3.0950    0.5590 hc        1 MOL      0.080485
    174 N15        -5.1140   -0.5920    2.6740 n         1 MOL      0.071120
    175 C58        -5.8580   -0.1350    3.8110 c3        1 MOL     -0.288003
    176 H77        -5.5030   -0.6460    4.7060 h1        1 MOL      0.086622
    177 H78        -5.7200    0.9400    3.9280 h1        1 MOL      0.086622
    178 H79        -6.9160   -0.3520    3.6650 h1        1 MOL      0.086622
    179 H80        -5.1870   -0.0100    1.8530 hn        1 MOL      0.078268
    180 Ca1         2.2310    0.1360   -1.0130 Ca        1 MOL      1.757749
    181 O27         0.8930   -0.5220   -3.2220 oh        1 MOL     -0.832199
    182 H81         1.5660   -1.0550   -3.6520 ho        1 MOL      0.394115
    183 H82         0.2130   -0.4130   -3.8920 ho        1 MOL      0.394115
    184 O28         0.8190    2.2640   -2.1290 oh        1 MOL     -0.832199
    185 H83         1.1480    1.9810   -2.9880 ho        1 MOL      0.394115
    186 H84         0.6390    3.1920   -2.2350 ho        1 MOL      0.394115
@<TRIPOS>BOND
     1    1    2 1   
     2    1    4 1   
     3    1    5 1   
     4    1    6 1   
     5    2    3 2   
     6    2    7 1   
     7    7    8 1   
     8    7   15 1   
     9    8    9 1   
    10    8   11 1   
    11    8   16 1   
    12    9   10 2   
    13    9   19 1   
    14   11   12 1   
    15   11   17 1   
    16   11   18 1   
    17   12   13 1   
    18   12   14 1   
    19   19   20 1   
    20   19   27 1   
    21   20   21 1   
    22   20   23 1   
    23   20   28 1   
    24   21   22 2   
    25   21   38 1   
    26   23   24 1   
    27   23   25 1   
    28   23   29 1   
    29   24   26 1   
    30   24   30 1   
    31   24   31 1   
    32   25   32 1   
    33   25   33 1   
    34   25   34 1   
    35   26   35 1   
    36   26   36 1   
    37   26   37 1   
    38   38   39 1   
    39   38   46 1   
    40   39   40 1   
    41   39   42 1   
    42   39   47 1   
    43   40   41 2   
    44   40   50 1   
    45   42   43 1   
    46   42   48 1   
    47   42   49 1   
    48   43   44 1   
    49   43   45 1   
    50   50   51 1   
    51   50   54 1   
    52   51   52 1   
    53   51   55 1   
    54   51   56 1   
    55   52   53 2   
    56   52   57 1   
    57   57   58 1   
    58   57   65 1   
    59   58   59 1   
    60   58   61 1   
    61   58   66 1   
    62   59   60 2   
    63   59   69 1   
    64   61   62 1   
    65   61   67 1   
    66   61   68 1   
    67   62   63 1   
    68   62   64 1   
    69   69   70 1   
    70   69   73 1   
    71   70   71 1   
    72   70   74 1   
    73   70   75 1   
    74   71   72 2   
    75   71   76 1   
    76   76   77 1   
    77   76   85 1   
    78   77   78 1   
    79   77   80 1   
    80   77   86 1   
    81   78   79 2   
    82   78   93 1   
    83   80   81 1   
    84   80   87 1   
    85   80   88 1   
    86   81   82 1   
    87   81   89 1   
    88   81   90 1   
    89   82   83 1   
    90   82   84 2   
    91   83   91 1   
    92   83   92 1   
    93   93   94 1   
    94   93  100 1   
    95   94   95 1   
    96   94   97 1   
    97   94  101 1   
    98   95   96 2   
    99   95  109 1   
   100   97   98 1   
   101   97   99 1   
   102   97  102 1   
   103   98  103 1   
   104   98  104 1   
   105   98  105 1   
   106   99  106 1   
   107   99  107 1   
   108   99  108 1   
   109  109  110 1   
   110  109  117 1   
   111  110  111 1   
   112  110  113 1   
   113  110  118 1   
   114  111  112 2   
   115  111  123 1   
   116  113  114 1   
   117  113  119 1   
   118  113  120 1   
   119  114  115 1   
   120  114  116 2   
   121  115  121 1   
   122  115  122 1   
   123  123  124 1   
   124  123  135 1   
   125  124  125 1   
   126  124  127 1   
   127  124  136 1   
   128  125  126 2   
   129  125  144 1   
   130  127  128 1   
   131  127  137 1   
   132  127  138 1   
   133  128  129 ar  
   134  128  130 ar  
   135  129  131 ar  
   136  129  139 1   
   137  130  132 ar  
   138  130  140 1   
   139  131  133 ar  
   140  131  141 1   
   141  132  133 ar  
   142  132  142 1   
   143  133  134 1   
   144  134  143 1   
   145  144  145 1   
   146  144  153 1   
   147  145  146 1   
   148  145  148 1   
   149  145  154 1   
   150  146  147 2   
   151  146  159 1   
   152  148  149 1   
   153  148  155 1   
   154  148  156 1   
   155  149  150 1   
   156  149  157 1   
   157  149  158 1   
   158  150  151 1   
   159  150  152 1   
   160  159  160 1   
   161  159  168 1   
   162  160  161 1   
   163  160  163 1   
   164  160  169 1   
   165  161  162 2   
   166  161  174 1   
   167  163  164 1   
   168  163  170 1   
   169  163  171 1   
   170  164  165 1   
   171  164  172 1   
   172  164  173 1   
   173  165  166 1   
   174  165  167 1   
   175  174  175 1   
   176  174  179 1   
   177  175  176 1   
   178  175  177 1   
   179  175  178 1   
   180  181  182 1   
   181  181  183 1   
   182  184  185 1   
   183  184  186 1   
@<TRIPOS>SUBSTRUCTURE
     1 MOL         1 TEMP              0 ****  ****    0 ROOT
