@<TRIPOS>MOLECULE
MOL
  179   176     1     0     0
SMALL
resp


@<TRIPOS>ATOM
      1 C1         -2.6770   -1.7980    5.7950 c3        1 MOL     -0.395669
      2 C2         -2.0430   -1.9340    4.4230 c         1 MOL      0.814584
      3 O1         -2.6700   -1.9690    3.3290 o         1 MOL     -0.664744
      4 H1         -2.3750   -2.6410    6.4180 hc        1 MOL      0.109249
      5 H2         -2.3460   -0.8690    6.2580 hc        1 MOL      0.109249
      6 H3         -3.7620   -1.7900    5.6960 hc        1 MOL      0.109249
      7 N1         -0.6790   -2.0080    4.3440 n         1 MOL     -0.660207
      8 C3          0.0820   -2.1310    3.0500 c3        1 MOL      0.027379
      9 C4         -0.0350   -3.5170    2.4760 c         1 MOL      0.547446
     10 O2          0.3330   -4.5390    3.0730 o         1 MOL     -0.557043
     11 C5          1.6410   -1.7170    3.2120 c3        1 MOL     -0.189071
     12 C6          2.3080   -1.5540    1.8380 c         1 MOL      0.730517
     13 O3          1.7370   -1.8920    0.8180 o         1 MOL     -0.753783
     14 O4          3.4880   -1.1470    1.7190 o         1 MOL     -0.753783
     15 H4         -0.1270   -1.9870    5.1870 hn        1 MOL      0.340572
     16 H5         -0.3280   -1.4180    2.3390 h1        1 MOL      0.060982
     17 H6          2.1000   -2.5630    3.7220 hc        1 MOL      0.081988
     18 H7          1.8320   -0.8490    3.8410 hc        1 MOL      0.081988
     19 N2         -0.5660   -3.6340    1.2330 n         1 MOL     -0.125960
     20 C7         -0.8420   -4.9610    0.6490 c3        1 MOL      0.013658
     21 C8          0.2920   -5.5140   -0.2510 c         1 MOL      0.386983
     22 O5          0.7330   -6.6210    0.0510 o         1 MOL     -0.535525
     23 C9         -2.1950   -4.9210   -0.1600 c3        1 MOL     -0.168433
     24 C10        -3.3740   -5.0400    0.7820 c3        1 MOL      0.059722
     25 C11        -4.7640   -5.0070    0.0110 c3        1 MOL     -0.049851
     26 C12        -5.0090   -6.2420   -0.8890 c3        1 MOL      0.095172
     27 N3         -6.2460   -5.9410   -1.6890 n4        1 MOL     -0.386654
     28 H8         -0.7940   -2.8000    0.7100 hn        1 MOL      0.149601
     29 H9         -0.9540   -5.6840    1.4640 h1        1 MOL      0.085261
     30 H10        -2.2280   -5.7700   -0.8360 hc        1 MOL      0.045507
     31 H11        -2.2000   -3.9710   -0.6780 hc        1 MOL      0.045507
     32 H12        -3.3880   -4.2240    1.4920 hc        1 MOL      0.026966
     33 H13        -3.2890   -5.8900    1.4610 hc        1 MOL      0.026966
     34 H14        -4.8350   -4.1050   -0.5830 hc        1 MOL      0.048354
     35 H15        -5.5670   -4.9800    0.7410 hc        1 MOL      0.048354
     36 H16        -5.2050   -7.1130   -0.2620 hx        1 MOL      0.062924
     37 H17        -4.1590   -6.4230   -1.5510 hx        1 MOL      0.062924
     38 H18        -6.2800   -6.5530   -2.4900 hn        1 MOL      0.330188
     39 H19        -7.0860   -6.0140   -1.1300 hn        1 MOL      0.330188
     40 H20        -6.2230   -5.0050   -2.0630 hn        1 MOL      0.330188
     41 N4          0.9120   -4.7610   -1.1700 n         1 MOL     -0.238351
     42 C13         2.1370   -5.1710   -1.8540 c3        1 MOL     -0.058690
     43 C14         3.5020   -4.8670   -1.1010 c         1 MOL      0.376356
     44 O6          4.6190   -5.1740   -1.6500 o         1 MOL     -0.523340
     45 C15         2.1460   -4.7540   -3.3180 c3        1 MOL     -0.145470
     46 C16         2.2600   -3.2940   -3.6080 c         1 MOL      0.685573
     47 O7          2.3190   -2.8950   -4.7900 o         1 MOL     -0.683117
     48 O8          2.4040   -2.5170   -2.5860 o         1 MOL     -0.683117
     49 H21         0.4750   -3.9090   -1.4980 hn        1 MOL      0.207583
     50 H22         2.1100   -6.2550   -1.9380 h1        1 MOL      0.112659
     51 H23         1.2610   -5.1590   -3.8040 hc        1 MOL      0.052085
     52 H24         3.0100   -5.2420   -3.7670 hc        1 MOL      0.052085
     53 N5          3.4210   -4.3290    0.0950 n         1 MOL     -0.105806
     54 C17         4.5140   -4.0910    1.0420 c3        1 MOL     -0.122491
     55 C18         5.6930   -3.3010    0.4470 c         1 MOL      0.504047
     56 O9          6.8810   -3.5340    0.5490 o         1 MOL     -0.593933
     57 H25         2.4930   -3.9990    0.3220 hn        1 MOL      0.199811
     58 H26         4.8840   -5.0780    1.3220 h1        1 MOL      0.081761
     59 H27         4.1220   -3.6370    1.9500 h1        1 MOL      0.081761
     60 N6          5.4020   -2.2640   -0.2900 n         1 MOL      0.026298
     61 C19         6.2880   -1.3790   -0.9330 c3        1 MOL     -0.279765
     62 C20         6.5920   -0.0500   -0.1030 c         1 MOL      0.364811
     63 O10         7.0760    0.9460   -0.6680 o         1 MOL     -0.446828
     64 C21         5.8140   -1.1450   -2.3990 c3        1 MOL     -0.188893
     65 C22         4.6170   -0.3290   -2.5430 c         1 MOL      0.685511
     66 N7          4.2930    0.1940   -3.6860 n         1 MOL     -0.754984
     67 O11         3.8720   -0.0480   -1.6100 o         1 MOL     -0.539190
     68 H28         4.4170   -2.0840   -0.3700 hn        1 MOL      0.068892
     69 H29         7.2340   -1.9030   -1.0570 h1        1 MOL      0.200038
     70 H30         5.5980   -2.1530   -2.7660 hc        1 MOL      0.108084
     71 H31         6.5550   -0.8170   -3.1280 hc        1 MOL      0.108084
     72 H32         4.7690   -0.1350   -4.5150 hn        1 MOL      0.341649
     73 H33         3.5350    0.8480   -3.7880 hn        1 MOL      0.341649
     74 N8          6.2770   -0.0180    1.2040 n         1 MOL     -0.263683
     75 C23         6.4790    1.0680    2.2490 c3        1 MOL     -0.227927
     76 C24         5.3630    2.0920    2.1990 c         1 MOL      0.524975
     77 O12         5.4130    3.0300    2.9570 o         1 MOL     -0.567704
     78 H34         5.8770   -0.8790    1.5620 hn        1 MOL      0.289015
     79 H35         7.3420    1.6990    2.0280 h1        1 MOL      0.143101
     80 H36         6.6030    0.7030    3.2670 h1        1 MOL      0.143101
     81 N9          4.3730    2.0220    1.2580 n         1 MOL     -0.044912
     82 C25         3.3310    3.0350    1.1500 c3        1 MOL     -0.028078
     83 C26         1.9720    2.2540    1.1070 c         1 MOL      0.359146
     84 O13         1.8110    1.1360    0.5700 o         1 MOL     -0.533870
     85 C27         3.5810    3.8890   -0.0950 c3        1 MOL      0.105114
     86 C28         4.8060    4.8560   -0.2250 ca        1 MOL      0.102526
     87 C29         5.9140    4.4050   -0.9670 ca        1 MOL     -0.246773
     88 C30         4.7460    6.1890    0.1480 ca        1 MOL     -0.246773
     89 C31         7.0260    5.2650   -1.1330 ca        1 MOL     -0.105804
     90 C32         5.7670    7.0520   -0.0770 ca        1 MOL     -0.105804
     91 C33         6.9500    6.6450   -0.7290 ca        1 MOL      0.179257
     92 O14         7.9470    7.4540   -1.0470 oh        1 MOL     -0.434407
     93 H37         4.3170    1.1620    0.7220 hn        1 MOL      0.071994
     94 H38         3.4490    3.7090    2.0020 h1        1 MOL      0.068617
     95 H39         2.7100    4.4940   -0.3630 hc        1 MOL     -0.019956
     96 H40         3.4770    3.2760   -0.9820 hc        1 MOL     -0.019956
     97 H41         5.8780    3.4590   -1.4810 ha        1 MOL      0.117223
     98 H42         3.8250    6.6190    0.5000 ha        1 MOL      0.117223
     99 H43         7.8840    4.9160   -1.6980 ha        1 MOL      0.105748
    100 H44         5.6960    8.1180    0.1180 ha        1 MOL      0.105748
    101 H45         7.7900    8.3920   -0.9170 ho        1 MOL      0.358569
    102 N10         0.9180    2.8190    1.6520 n         1 MOL     -0.356671
    103 C34        -0.4450    2.4340    1.5920 c3        1 MOL      0.237947
    104 C35        -1.2480    3.3260    0.7020 c         1 MOL      0.250888
    105 O15        -1.4790    4.5260    0.9940 o         1 MOL     -0.532129
    106 C36        -1.1070    2.4770    3.0510 c3        1 MOL      0.114385
    107 C37        -0.3550    1.6140    4.0810 c3        1 MOL      0.123067
    108 C38        -2.6180    2.0750    3.0600 c3        1 MOL     -0.341049
    109 C39        -0.3920    2.3070    5.4690 c3        1 MOL     -0.168706
    110 H46         1.1430    3.6220    2.2210 hn        1 MOL      0.249037
    111 H47        -0.5780    1.4200    1.2250 h1        1 MOL      0.008443
    112 H48        -0.9390    3.5300    3.2680 hc        1 MOL      0.003873
    113 H49         0.7200    1.5850    3.9280 hc        1 MOL     -0.018377
    114 H50        -0.6530    0.5620    4.0800 hc        1 MOL     -0.018377
    115 H51        -3.0720    2.1700    4.0460 hc        1 MOL      0.079313
    116 H52        -3.1250    2.8790    2.5410 hc        1 MOL      0.079313
    117 H53        -2.7690    1.0480    2.7190 hc        1 MOL      0.079313
    118 H54        -1.4280    2.2730    5.8130 hc        1 MOL      0.031201
    119 H55         0.1260    1.6890    6.2010 hc        1 MOL      0.031201
    120 H56        -0.0290    3.3350    5.4740 hc        1 MOL      0.031201
    121 N11        -1.7390    2.8340   -0.4470 n         1 MOL     -0.039722
    122 C40        -2.6010    3.6240   -1.3230 c3        1 MOL     -0.025846
    123 C41        -4.0040    3.7430   -0.7010 c         1 MOL      0.297557
    124 O16        -4.4180    2.9910    0.1740 o         1 MOL     -0.269081
    125 C42        -2.6740    3.0860   -2.7780 c3        1 MOL     -0.324078
    126 O17        -3.5420    1.9680   -2.7500 oh        1 MOL     -0.371341
    127 H57        -1.2980    1.9970   -0.7880 hn        1 MOL      0.265866
    128 H58        -2.2430    4.6550   -1.3830 h1        1 MOL      0.068166
    129 H59        -1.6650    2.7690   -3.0310 h1        1 MOL      0.151528
    130 H60        -2.9290    3.9110   -3.4410 h1        1 MOL      0.151528
    131 H61        -3.4080    1.4390   -3.5470 ho        1 MOL      0.390445
    132 N12        -4.8040    4.6110   -1.2570 n         1 MOL     -0.320000
    133 C43        -6.1910    4.7430   -0.9880 c3        1 MOL      0.127217
    134 C44        -7.1370    3.6720   -1.4850 c         1 MOL      0.384860
    135 O18        -8.2970    3.6280   -1.0830 o         1 MOL     -0.513009
    136 C45        -6.5920    6.1760   -1.4040 c3        1 MOL     -0.272278
    137 H62        -4.3800    5.3260   -1.8270 hn        1 MOL      0.279027
    138 H63        -6.2300    4.6760    0.0940 h1        1 MOL      0.099148
    139 H64        -5.9320    6.9230   -0.9480 hc        1 MOL      0.086636
    140 H65        -6.4120    6.2810   -2.4680 hc        1 MOL      0.086636
    141 H66        -7.5660    6.3610   -0.9460 hc        1 MOL      0.086636
    142 N13        -6.6810    2.7100   -2.2800 n         1 MOL     -0.258137
    143 C46        -7.3510    1.4790   -2.4860 c3        1 MOL      0.130274
    144 C47        -7.0630    0.4730   -1.3670 c         1 MOL      0.221713
    145 O19        -7.9160   -0.3590   -1.0870 o         1 MOL     -0.519070
    146 C48        -7.0420    0.9090   -3.9350 c3        1 MOL     -0.240585
    147 H67        -5.7710    2.7640   -2.7120 hn        1 MOL      0.158719
    148 H68        -8.4180    1.6970   -2.5770 h1        1 MOL      0.103882
    149 H69        -7.6960    0.0510   -4.0940 hc        1 MOL      0.065627
    150 H70        -7.3830    1.7040   -4.5950 hc        1 MOL      0.065627
    151 H71        -5.9830    0.7440   -4.0960 hc        1 MOL      0.065627
    152 N14        -5.8950    0.5000   -0.7840 n         1 MOL      0.244308
    153 C49        -5.3760   -0.3990    0.1690 c3        1 MOL     -0.088955
    154 C50        -5.9900    0.0460    1.4960 c         1 MOL      0.421544
    155 O20        -6.3970   -0.7840    2.3140 o         1 MOL     -0.534557
    156 C51        -3.8230   -0.3690    0.2270 c3        1 MOL      0.024299
    157 C52        -3.2190   -1.1870   -0.8960 c3        1 MOL     -0.111222
    158 C53        -1.6740   -0.9940   -0.9580 c         1 MOL      0.720208
    159 O21        -1.0510    0.0490   -0.7400 o         1 MOL     -0.743866
    160 O22        -0.9700   -1.9650   -1.3300 o         1 MOL     -0.743866
    161 H72        -5.1650    1.1360   -1.0820 hn        1 MOL     -0.081795
    162 H73        -5.7460   -1.3980   -0.0840 h1        1 MOL      0.008037
    163 H74        -3.4980   -0.8390    1.1540 hc        1 MOL      0.081116
    164 H75        -3.5290    0.6740    0.2480 hc        1 MOL      0.081116
    165 H76        -3.6470   -0.6950   -1.7670 hc        1 MOL     -0.015244
    166 H77        -3.5370   -2.2280   -0.8620 hc        1 MOL     -0.015244
    167 N15        -6.2180    1.3600    1.7280 n         1 MOL     -0.099958
    168 C54        -7.2150    1.8790    2.7890 c3        1 MOL     -0.291287
    169 H78        -7.0460    1.3580    3.7320 h1        1 MOL      0.121143
    170 H79        -7.0660    2.9490    2.9340 h1        1 MOL      0.121143
    171 H80        -8.2350    1.6960    2.4510 h1        1 MOL      0.121143
    172 H81        -5.6370    2.0220    1.2400 hn        1 MOL      0.049085
    173 Ca1         1.3060   -0.5110   -1.2840 Ca        1 MOL      1.696173
    174 O23         1.1360    1.9240   -2.1530 oh        1 MOL     -0.822710
    175 H82         0.7660    2.8110   -2.1420 ho        1 MOL      0.390810
    176 H83         1.6040    1.8650   -2.9910 ho        1 MOL      0.390810
    177 O24         0.8130   -0.3250   -3.9500 oh        1 MOL     -0.822710
    178 H84         0.3720    0.2290   -4.5870 ho        1 MOL      0.390810
    179 H85         1.3910   -0.8760   -4.4690 ho        1 MOL      0.390810
@<TRIPOS>BOND
     1    1    2 1   
     2    1    4 1   
     3    1    5 1   
     4    1    6 1   
     5    2    3 2   
     6    2    7 1   
     7    7    8 1   
     8    7   15 1   
     9    8    9 1   
    10    8   11 1   
    11    8   16 1   
    12    9   10 2   
    13    9   19 1   
    14   11   12 1   
    15   11   17 1   
    16   11   18 1   
    17   12   13 1   
    18   12   14 1   
    19   19   20 1   
    20   19   28 1   
    21   20   21 1   
    22   20   23 1   
    23   20   29 1   
    24   21   22 2   
    25   21   41 1   
    26   23   24 1   
    27   23   30 1   
    28   23   31 1   
    29   24   25 1   
    30   24   32 1   
    31   24   33 1   
    32   25   26 1   
    33   25   34 1   
    34   25   35 1   
    35   26   27 1   
    36   26   36 1   
    37   26   37 1   
    38   27   38 1   
    39   27   39 1   
    40   27   40 1   
    41   41   42 1   
    42   41   49 1   
    43   42   43 1   
    44   42   45 1   
    45   42   50 1   
    46   43   44 2   
    47   43   53 1   
    48   45   46 1   
    49   45   51 1   
    50   45   52 1   
    51   46   47 1   
    52   46   48 1   
    53   53   54 1   
    54   53   57 1   
    55   54   55 1   
    56   54   58 1   
    57   54   59 1   
    58   55   56 2   
    59   55   60 1   
    60   60   61 1   
    61   60   68 1   
    62   61   62 1   
    63   61   64 1   
    64   61   69 1   
    65   62   63 2   
    66   62   74 1   
    67   64   65 1   
    68   64   70 1   
    69   64   71 1   
    70   65   66 1   
    71   65   67 2   
    72   66   72 1   
    73   66   73 1   
    74   74   75 1   
    75   74   78 1   
    76   75   76 1   
    77   75   79 1   
    78   75   80 1   
    79   76   77 2   
    80   76   81 1   
    81   81   82 1   
    82   81   93 1   
    83   82   83 1   
    84   82   85 1   
    85   82   94 1   
    86   83   84 2   
    87   83  102 1   
    88   85   86 1   
    89   85   95 1   
    90   85   96 1   
    91   86   87 ar  
    92   86   88 ar  
    93   87   89 ar  
    94   87   97 1   
    95   88   90 ar  
    96   88   98 1   
    97   89   91 ar  
    98   89   99 1   
    99   90   91 ar  
   100   90  100 1   
   101   91   92 1   
   102   92  101 1   
   103  102  103 1   
   104  102  110 1   
   105  103  104 1   
   106  103  106 1   
   107  103  111 1   
   108  104  105 2   
   109  104  121 1   
   110  106  107 1   
   111  106  108 1   
   112  106  112 1   
   113  107  109 1   
   114  107  113 1   
   115  107  114 1   
   116  108  115 1   
   117  108  116 1   
   118  108  117 1   
   119  109  118 1   
   120  109  119 1   
   121  109  120 1   
   122  121  122 1   
   123  121  127 1   
   124  122  123 1   
   125  122  125 1   
   126  122  128 1   
   127  123  124 2   
   128  123  132 1   
   129  125  126 1   
   130  125  129 1   
   131  125  130 1   
   132  126  131 1   
   133  132  133 1   
   134  132  137 1   
   135  133  134 1   
   136  133  136 1   
   137  133  138 1   
   138  134  135 2   
   139  134  142 1   
   140  136  139 1   
   141  136  140 1   
   142  136  141 1   
   143  142  143 1   
   144  142  147 1   
   145  143  144 1   
   146  143  146 1   
   147  143  148 1   
   148  144  145 2   
   149  144  152 1   
   150  146  149 1   
   151  146  150 1   
   152  146  151 1   
   153  152  153 1   
   154  152  161 1   
   155  153  154 1   
   156  153  156 1   
   157  153  162 1   
   158  154  155 2   
   159  154  167 1   
   160  156  157 1   
   161  156  163 1   
   162  156  164 1   
   163  157  158 1   
   164  157  165 1   
   165  157  166 1   
   166  158  159 1   
   167  158  160 1   
   168  167  168 1   
   169  167  172 1   
   170  168  169 1   
   171  168  170 1   
   172  168  171 1   
   173  174  175 1   
   174  174  176 1   
   175  177  178 1   
   176  177  179 1   
@<TRIPOS>SUBSTRUCTURE
     1 MOL         1 TEMP              0 ****  ****    0 ROOT
