@<TRIPOS>MOLECULE
MOL
  189   185     1     0     0
SMALL
resp


@<TRIPOS>ATOM
      1 C1         -0.6200   -3.8860    5.8590 c3        1 MOL     -0.350422
      2 C2         -0.0110   -3.3720    4.5270 c         1 MOL      0.754291
      3 O1          0.3010   -2.1930    4.3710 o         1 MOL     -0.624862
      4 H1         -1.4250   -4.5880    5.6430 hc        1 MOL      0.090401
      5 H2          0.1510   -4.3880    6.4430 hc        1 MOL      0.090401
      6 H3         -1.0170   -3.0450    6.4270 hc        1 MOL      0.090401
      7 N1          0.4220   -4.2290    3.6370 n         1 MOL     -0.614338
      8 C3          1.3710   -3.9360    2.5170 c3        1 MOL      0.350310
      9 C4          1.3360   -4.9620    1.4370 c         1 MOL      0.380505
     10 O2          1.4120   -6.1860    1.7040 o         1 MOL     -0.586768
     11 C5          2.7970   -3.6860    3.0160 c3        1 MOL     -0.312982
     12 C6          3.7580   -3.2850    1.9030 c         1 MOL      0.708291
     13 O3          4.9580   -3.2940    2.0760 o         1 MOL     -0.696352
     14 O4          3.3950   -2.6320    0.9120 o         1 MOL     -0.696352
     15 H4          0.2860   -5.2030    3.8190 hn        1 MOL      0.293645
     16 H5          1.1070   -2.9980    2.0290 h1        1 MOL     -0.095801
     17 H6          3.1650   -4.6040    3.4550 hc        1 MOL      0.086280
     18 H7          2.8350   -2.9820    3.8410 hc        1 MOL      0.086280
     19 N2          1.3070   -4.6190    0.1270 n         1 MOL      0.069200
     20 C7          1.1670   -5.5110   -0.9790 c3        1 MOL     -0.415416
     21 C8          2.1510   -5.2810   -2.1320 c         1 MOL      0.543272
     22 O5          2.2650   -6.0050   -3.1360 o         1 MOL     -0.605658
     23 C9         -0.3200   -5.5890   -1.5140 c3        1 MOL      0.188640
     24 C10        -1.0200   -4.2110   -1.6100 c3        1 MOL      0.194155
     25 C11        -1.0300   -6.4870   -0.4410 c3        1 MOL     -0.110678
     26 C12        -2.5520   -4.3430   -2.0110 c3        1 MOL     -0.401007
     27 H8          1.2200   -3.6140   -0.0170 hn        1 MOL      0.215159
     28 H9          1.4660   -6.4990   -0.6190 h1        1 MOL      0.167238
     29 H10        -0.4160   -6.0950   -2.4720 hc        1 MOL     -0.016974
     30 H11        -0.5850   -3.7000   -2.4760 hc        1 MOL     -0.012941
     31 H12        -0.9520   -3.6640   -0.6730 hc        1 MOL     -0.012941
     32 H13        -2.0200   -6.7540   -0.7970 hc        1 MOL      0.008677
     33 H14        -0.5560   -7.4340   -0.1840 hc        1 MOL      0.008677
     34 H15        -1.1210   -5.9430    0.4980 hc        1 MOL      0.008677
     35 H16        -3.1420   -4.7530   -1.1960 hc        1 MOL      0.085061
     36 H17        -2.8850   -3.3300   -2.2000 hc        1 MOL      0.085061
     37 H18        -2.4970   -4.9000   -2.9510 hc        1 MOL      0.085061
     38 N3          3.0290   -4.3150   -1.9850 n         1 MOL     -0.205499
     39 C13         3.9810   -3.8540   -3.0070 c3        1 MOL     -0.017736
     40 C14         5.3690   -3.4850   -2.4940 c         1 MOL      0.411257
     41 O6          6.3230   -3.5760   -3.1740 o         1 MOL     -0.524502
     42 C15         3.3500   -2.7120   -3.8640 c3        1 MOL     -0.200775
     43 C16         2.8860   -1.5100   -3.0020 c         1 MOL      0.689660
     44 O7          3.1390   -1.4350   -1.7510 o         1 MOL     -0.686198
     45 O8          2.3090   -0.6020   -3.6530 o         1 MOL     -0.686198
     46 H19         2.9950   -3.8030   -1.1050 hn        1 MOL      0.021344
     47 H20         4.2580   -4.6650   -3.6730 h1        1 MOL      0.095697
     48 H21         2.6130   -3.0460   -4.5900 hc        1 MOL      0.071896
     49 H22         4.1460   -2.3480   -4.5140 hc        1 MOL      0.071896
     50 N4          5.5320   -3.1070   -1.2020 n         1 MOL     -0.192214
     51 C17         6.7710   -2.6550   -0.5700 c3        1 MOL     -0.171962
     52 C18         7.3410   -1.4250   -1.3100 c         1 MOL      0.477409
     53 O9          8.5450   -1.2660   -1.4060 o         1 MOL     -0.543639
     54 H23         4.7170   -2.8910   -0.6400 hn        1 MOL      0.207714
     55 H24         7.4430   -3.5060   -0.5210 h1        1 MOL      0.095422
     56 H25         6.4850   -2.2990    0.4140 h1        1 MOL      0.095422
     57 N5          6.3710   -0.5170   -1.7030 n         1 MOL     -0.213261
     58 C19         6.7280    0.6800   -2.3540 c3        1 MOL     -0.025182
     59 C20         7.3710    1.6350   -1.3000 c         1 MOL      0.417497
     60 O10         8.4590    2.2050   -1.6010 o         1 MOL     -0.579930
     61 C21         5.5510    1.3950   -3.0520 c3        1 MOL     -0.320115
     62 C22         4.3640    1.6940   -2.1570 c         1 MOL      0.751347
     63 O11         4.2260    1.1520   -0.9800 o         1 MOL     -0.722216
     64 O12         3.4520    2.5150   -2.5440 o         1 MOL     -0.722216
     65 H26         5.4180   -0.6740   -1.4010 hn        1 MOL      0.254539
     66 H27         7.5490    0.4940   -3.0460 h1        1 MOL      0.090866
     67 H28         5.2950    0.9460   -4.0150 hc        1 MOL      0.098424
     68 H29         5.9360    2.3730   -3.3510 hc        1 MOL      0.098424
     69 N6          6.7910    1.7450   -0.1270 n         1 MOL     -0.022713
     70 C23         7.2170    2.5740    0.9500 c3        1 MOL     -0.296325
     71 C24         6.2200    3.6010    1.4620 c         1 MOL      0.467628
     72 O13         6.5210    4.3120    2.4520 o         1 MOL     -0.588800
     73 H30         6.0990    1.0500    0.0940 hn        1 MOL      0.093493
     74 H31         8.1230    3.0860    0.6100 h1        1 MOL      0.128963
     75 H32         7.4630    1.9600    1.8130 h1        1 MOL      0.128963
     76 N7          4.9960    3.6630    0.8970 n         1 MOL     -0.059656
     77 C25         3.7720    4.3840    1.3840 c3        1 MOL     -0.149247
     78 C26         2.6970    3.4010    1.8360 c         1 MOL      0.603948
     79 O14         2.8260    2.1870    1.6170 o         1 MOL     -0.570152
     80 C27         3.2200    5.1760    0.2410 c3        1 MOL      0.277333
     81 C28         4.2370    6.2410   -0.2300 c3        1 MOL     -0.313935
     82 C29         3.6290    7.0920   -1.3690 c         1 MOL      0.600075
     83 N8          3.6000    6.7150   -2.6230 n         1 MOL     -0.669215
     84 O15         3.0460    8.1210   -1.1320 o         1 MOL     -0.576591
     85 H33         4.9430    3.1120    0.0500 hn        1 MOL      0.104000
     86 H34         4.2330    4.9930    2.1700 h1        1 MOL      0.088913
     87 H35         2.2790    5.6770    0.4840 hc        1 MOL     -0.014355
     88 H36         3.0150    4.4750   -0.5700 hc        1 MOL     -0.014355
     89 H37         5.1530    5.7730   -0.5970 hc        1 MOL      0.068613
     90 H38         4.5380    6.8520    0.6140 hc        1 MOL      0.068613
     91 H39         4.2240    5.9820   -2.9210 hn        1 MOL      0.326729
     92 H40         3.1780    7.2960   -3.3240 hn        1 MOL      0.326729
     93 N9          1.5610    3.8490    2.4520 n         1 MOL     -0.708236
     94 C30         0.2810    3.0490    2.5120 c3        1 MOL      0.442272
     95 C31        -0.8070    3.5840    1.5280 c         1 MOL      0.344100
     96 O16        -1.1120    4.7970    1.5240 o         1 MOL     -0.544359
     97 C32        -0.2180    3.0690    3.9830 c3        1 MOL      0.254908
     98 C33        -0.8050    4.4230    4.3540 c3        1 MOL     -0.264270
     99 C34        -1.2160    1.9850    4.2040 c3        1 MOL     -0.264270
    100 H41         1.5170    4.8280    2.6820 hn        1 MOL      0.311922
    101 H42         0.5740    2.0280    2.2780 h1        1 MOL     -0.113144
    102 H43         0.6090    2.8940    4.6660 hc        1 MOL     -0.027748
    103 H44        -0.7890    4.5530    5.4400 hc        1 MOL      0.047761
    104 H45        -0.1970    5.2160    3.9370 hc        1 MOL      0.047761
    105 H46        -1.8300    4.5260    3.9900 hc        1 MOL      0.047761
    106 H47        -1.4900    2.1470    5.2480 hc        1 MOL      0.047761
    107 H48        -2.0520    2.1300    3.5170 hc        1 MOL      0.047761
    108 H49        -0.7830    0.9910    4.2090 hc        1 MOL      0.047761
    109 N10        -1.4070    2.6300    0.8170 n         1 MOL     -0.152346
    110 C35        -2.4790    2.8430   -0.1530 c3        1 MOL      0.060411
    111 C36        -3.9030    2.7700    0.3950 c         1 MOL      0.182374
    112 O17        -4.2090    2.2300    1.4080 o         1 MOL     -0.242309
    113 C37        -2.1900    1.7740   -1.2770 c3        1 MOL      0.083320
    114 C38        -3.2270    1.6300   -2.3340 c         1 MOL      0.578907
    115 N11        -3.1250    2.4410   -3.2960 n         1 MOL     -0.628477
    116 O18        -4.1080    0.8510   -2.1860 o         1 MOL     -0.568142
    117 H50        -0.9080    1.7510    0.8090 hn        1 MOL      0.095810
    118 H51        -2.2850    3.8200   -0.5780 h1        1 MOL      0.038644
    119 H52        -2.0870    0.7720   -0.8500 hc        1 MOL      0.001315
    120 H53        -1.2290    1.9930   -1.7280 hc        1 MOL      0.001315
    121 H54        -2.3540    3.0970   -3.2760 hn        1 MOL      0.284224
    122 H55        -3.7780    2.4840   -4.0610 hn        1 MOL      0.284224
    123 N12        -4.8440    3.1960   -0.4530 n         1 MOL     -0.141742
    124 C39        -6.2720    3.1160   -0.2310 c3        1 MOL      0.047232
    125 C40        -6.8300    1.7900    0.1670 c         1 MOL      0.360035
    126 O19        -7.8140    1.6890    0.9000 o         1 MOL     -0.550855
    127 C41        -7.0700    3.7000   -1.4480 c3        1 MOL     -0.160480
    128 C42        -7.1380    2.7800   -2.6760 ca        1 MOL      0.436616
    129 C43        -8.0230    1.6960   -2.7890 ca        1 MOL     -0.592034
    130 C44        -6.2420    3.0900   -3.7100 ca        1 MOL     -0.592034
    131 C45        -7.9670    0.8230   -3.9260 ca        1 MOL      0.174813
    132 C46        -6.1120    2.2290   -4.7950 ca        1 MOL      0.174813
    133 C47        -6.9560    1.1140   -4.8690 ca        1 MOL     -0.087296
    134 O20        -6.7220    0.2140   -5.7950 oh        1 MOL     -0.372424
    135 H56        -4.5670    3.5920   -1.3460 hn        1 MOL      0.093728
    136 H57        -6.3870    3.6810    0.7010 h1        1 MOL      0.039516
    137 H58        -6.7430    4.6910   -1.7640 hc        1 MOL      0.040138
    138 H59        -8.1030    3.9080   -1.1440 hc        1 MOL      0.040138
    139 H60        -8.7670    1.5610   -2.0250 ha        1 MOL      0.228865
    140 H61        -5.5720    3.9350   -3.6680 ha        1 MOL      0.228865
    141 H62        -8.5760   -0.0680   -3.9990 ha        1 MOL      0.049472
    142 H63        -5.4730    2.5630   -5.6000 ha        1 MOL      0.049472
    143 H64        -5.8870    0.3630   -6.2450 ho        1 MOL      0.330244
    144 N13        -6.1720    0.7260   -0.2710 n         1 MOL      0.026407
    145 C48        -6.5090   -0.6440    0.0500 c3        1 MOL     -0.165605
    146 C49        -5.7720   -1.3040    1.2210 c         1 MOL      0.550150
    147 O21        -6.3460   -2.1740    1.9110 o         1 MOL     -0.510726
    148 C50        -6.3330   -1.4710   -1.2890 c3        1 MOL      0.017176
    149 C51        -7.1220   -2.8200   -1.5240 c3        1 MOL     -0.093414
    150 C52        -8.5640   -2.8600   -1.0530 c         1 MOL      0.650954
    151 O22        -9.3680   -1.9400   -1.3530 o         1 MOL     -0.705873
    152 O23        -9.1000   -3.7880   -0.4050 o         1 MOL     -0.705873
    153 H65        -5.4850    0.8510   -1.0060 hn        1 MOL      0.217963
    154 H66        -7.5810   -0.6870    0.2790 h1        1 MOL      0.114691
    155 H67        -5.3010   -1.6460   -1.5900 hc        1 MOL      0.054935
    156 H68        -6.6640   -0.8160   -2.0940 hc        1 MOL      0.054935
    157 H69        -6.6820   -3.6460   -0.9630 hc        1 MOL     -0.024137
    158 H70        -7.0410   -3.1380   -2.5630 hc        1 MOL     -0.024137
    159 N14        -4.5950   -0.8000    1.5540 n         1 MOL     -0.371325
    160 C53        -3.7840   -1.1470    2.7020 c3        1 MOL     -0.119424
    161 C54        -4.3340   -0.4920    4.0130 c         1 MOL      0.478728
    162 O24        -4.3640   -1.1190    5.0500 o         1 MOL     -0.545684
    163 C55        -2.3780   -0.7250    2.2950 c3        1 MOL     -0.046717
    164 C56        -1.7530   -1.6200    1.1470 c3        1 MOL      0.049961
    165 C57        -0.3140   -1.1570    0.7540 c         1 MOL      0.622929
    166 O25         0.4850   -1.8260    0.0970 o         1 MOL     -0.649888
    167 O26         0.0990   -0.0120    1.0030 o         1 MOL     -0.649888
    168 H71        -4.1480   -0.1300    0.9390 hn        1 MOL      0.085503
    169 H72        -3.8130   -2.2340    2.7980 h1        1 MOL      0.097262
    170 H73        -1.7560   -0.8130    3.1890 hc        1 MOL      0.058894
    171 H74        -2.4410    0.3370    2.0470 hc        1 MOL      0.058894
    172 H75        -2.3460   -1.5460    0.2410 hc        1 MOL      0.004054
    173 H76        -1.6390   -2.6200    1.5660 hc        1 MOL      0.004054
    174 N15        -4.7010    0.7860    3.9810 n         1 MOL     -0.070680
    175 C58        -5.0100    1.5400    5.2610 c3        1 MOL     -0.206473
    176 H77        -5.0030    2.6110    5.0620 h1        1 MOL      0.080686
    177 H78        -5.9930    1.2460    5.6290 h1        1 MOL      0.080686
    178 H79        -4.2550    1.3050    6.0120 h1        1 MOL      0.080686
    179 H80        -4.6930    1.3000    3.1110 hn        1 MOL      0.071837
    180 Ca1         2.6490   -0.2220    0.5020 Ca        1 MOL      1.745721
    181 O27         2.3330   -0.4810    3.1180 oh        1 MOL     -0.841643
    182 H81         2.6390    0.0250    3.8720 ho        1 MOL      0.415259
    183 H82         1.4560   -0.7740    3.3730 ho        1 MOL      0.415259
    184 O28         1.3590    1.0680   -1.7410 oh        1 MOL     -0.841643
    185 H83         1.6020    0.6060   -2.5350 ho        1 MOL      0.415259
    186 H84         1.8230    1.9040   -1.7990 ho        1 MOL      0.415259
    187 O29         5.1390   -0.3280    1.5270 oh        1 MOL     -0.841643
    188 H85         5.1070   -1.2640    1.7350 ho        1 MOL      0.415259
    189 H86         5.5830    0.0750    2.2730 ho        1 MOL      0.415259
@<TRIPOS>BOND
     1    1    2 1   
     2    1    4 1   
     3    1    5 1   
     4    1    6 1   
     5    2    3 2   
     6    2    7 1   
     7    7    8 1   
     8    7   15 1   
     9    8    9 1   
    10    8   11 1   
    11    8   16 1   
    12    9   10 2   
    13    9   19 1   
    14   11   12 1   
    15   11   17 1   
    16   11   18 1   
    17   12   13 1   
    18   12   14 1   
    19   19   20 1   
    20   19   27 1   
    21   20   21 1   
    22   20   23 1   
    23   20   28 1   
    24   21   22 2   
    25   21   38 1   
    26   23   24 1   
    27   23   25 1   
    28   23   29 1   
    29   24   26 1   
    30   24   30 1   
    31   24   31 1   
    32   25   32 1   
    33   25   33 1   
    34   25   34 1   
    35   26   35 1   
    36   26   36 1   
    37   26   37 1   
    38   38   39 1   
    39   38   46 1   
    40   39   40 1   
    41   39   42 1   
    42   39   47 1   
    43   40   41 2   
    44   40   50 1   
    45   42   43 1   
    46   42   48 1   
    47   42   49 1   
    48   43   44 1   
    49   43   45 1   
    50   50   51 1   
    51   50   54 1   
    52   51   52 1   
    53   51   55 1   
    54   51   56 1   
    55   52   53 2   
    56   52   57 1   
    57   57   58 1   
    58   57   65 1   
    59   58   59 1   
    60   58   61 1   
    61   58   66 1   
    62   59   60 2   
    63   59   69 1   
    64   61   62 1   
    65   61   67 1   
    66   61   68 1   
    67   62   63 1   
    68   62   64 1   
    69   69   70 1   
    70   69   73 1   
    71   70   71 1   
    72   70   74 1   
    73   70   75 1   
    74   71   72 2   
    75   71   76 1   
    76   76   77 1   
    77   76   85 1   
    78   77   78 1   
    79   77   80 1   
    80   77   86 1   
    81   78   79 2   
    82   78   93 1   
    83   80   81 1   
    84   80   87 1   
    85   80   88 1   
    86   81   82 1   
    87   81   89 1   
    88   81   90 1   
    89   82   83 1   
    90   82   84 2   
    91   83   91 1   
    92   83   92 1   
    93   93   94 1   
    94   93  100 1   
    95   94   95 1   
    96   94   97 1   
    97   94  101 1   
    98   95   96 2   
    99   95  109 1   
   100   97   98 1   
   101   97   99 1   
   102   97  102 1   
   103   98  103 1   
   104   98  104 1   
   105   98  105 1   
   106   99  106 1   
   107   99  107 1   
   108   99  108 1   
   109  109  110 1   
   110  109  117 1   
   111  110  111 1   
   112  110  113 1   
   113  110  118 1   
   114  111  112 2   
   115  111  123 1   
   116  113  114 1   
   117  113  119 1   
   118  113  120 1   
   119  114  115 1   
   120  114  116 2   
   121  115  121 1   
   122  115  122 1   
   123  123  124 1   
   124  123  135 1   
   125  124  125 1   
   126  124  127 1   
   127  124  136 1   
   128  125  126 2   
   129  125  144 1   
   130  127  128 1   
   131  127  137 1   
   132  127  138 1   
   133  128  129 ar  
   134  128  130 ar  
   135  129  131 ar  
   136  129  139 1   
   137  130  132 ar  
   138  130  140 1   
   139  131  133 ar  
   140  131  141 1   
   141  132  133 ar  
   142  132  142 1   
   143  133  134 1   
   144  134  143 1   
   145  144  145 1   
   146  144  153 1   
   147  145  146 1   
   148  145  148 1   
   149  145  154 1   
   150  146  147 2   
   151  146  159 1   
   152  148  149 1   
   153  148  155 1   
   154  148  156 1   
   155  149  150 1   
   156  149  157 1   
   157  149  158 1   
   158  150  151 1   
   159  150  152 1   
   160  159  160 1   
   161  159  168 1   
   162  160  161 1   
   163  160  163 1   
   164  160  169 1   
   165  161  162 2   
   166  161  174 1   
   167  163  164 1   
   168  163  170 1   
   169  163  171 1   
   170  164  165 1   
   171  164  172 1   
   172  164  173 1   
   173  165  166 1   
   174  165  167 1   
   175  174  175 1   
   176  174  179 1   
   177  175  176 1   
   178  175  177 1   
   179  175  178 1   
   180  181  182 1   
   181  181  183 1   
   182  184  185 1   
   183  184  186 1   
   184  187  188 1   
   185  187  189 1   
@<TRIPOS>SUBSTRUCTURE
     1 MOL         1 TEMP              0 ****  ****    0 ROOT
