@<TRIPOS>MOLECULE
MOL
  189   185     1     0     0
SMALL
resp


@<TRIPOS>ATOM
      1 C1          0.7880    3.7120   -5.3360 c3        1 MOL     -0.462242
      2 C2          1.0250    2.8540   -4.1270 c         1 MOL      0.767724
      3 O1          0.0510    2.7130   -3.3500 o         1 MOL     -0.627845
      4 H1          0.2390    3.1410   -6.0850 hc        1 MOL      0.110013
      5 H2          0.2080    4.5890   -5.0510 hc        1 MOL      0.110013
      6 H3          1.7460    4.0290   -5.7500 hc        1 MOL      0.110013
      7 N1          2.2560    2.4250   -3.8610 n         1 MOL     -0.530608
      8 C3          2.5620    1.9440   -2.5020 c3        1 MOL      0.264194
      9 C4          2.8200    3.1720   -1.5430 c         1 MOL      0.267942
     10 O2          3.9250    3.7040   -1.7070 o         1 MOL     -0.491653
     11 C5          3.7070    0.9690   -2.6060 c3        1 MOL     -0.364217
     12 C6          4.0290    0.5030   -1.1690 c         1 MOL      0.929025
     13 O3          5.2310    0.2110   -0.8990 o         1 MOL     -0.661932
     14 O4          3.1820    0.7230   -0.2540 o         1 MOL     -0.661932
     15 H4          2.9940    2.5490   -4.5440 hn        1 MOL      0.324807
     16 H5          1.7000    1.4470   -2.0590 h1        1 MOL     -0.074764
     17 H6          4.5720    1.5470   -2.9540 hc        1 MOL      0.073258
     18 H7          3.4300    0.1470   -3.2590 hc        1 MOL      0.073258
     19 N2          1.9100    3.4370   -0.5810 n         1 MOL     -0.232194
     20 C7          1.9660    4.6810    0.2070 c3        1 MOL     -0.019481
     21 C8          2.7860    4.5590    1.4780 c         1 MOL      0.505842
     22 O5          3.1480    5.5860    1.9680 o         1 MOL     -0.556970
     23 C9          0.5620    5.2020    0.5510 c3        1 MOL     -0.050664
     24 C10        -0.3000    5.5210   -0.6760 c3        1 MOL     -0.008853
     25 C11         0.3740    6.5860   -1.5730 c3        1 MOL     -0.027826
     26 C12        -0.6000    7.3000   -2.5260 c3        1 MOL      0.007387
     27 N3          0.1510    8.2980   -3.2410 n4        1 MOL     -0.335323
     28 H8          1.1980    2.7230   -0.4830 hn        1 MOL      0.341283
     29 H9          2.4650    5.4990   -0.3260 h1        1 MOL      0.035196
     30 H10         0.6290    6.1690    1.0580 hc        1 MOL      0.035313
     31 H11         0.0050    4.5530    1.2280 hc        1 MOL      0.035313
     32 H12        -1.2270    5.9570   -0.3010 hc        1 MOL      0.018570
     33 H13        -0.4380    4.6220   -1.2630 hc        1 MOL      0.018570
     34 H14         0.9660    6.0140   -2.2910 hc        1 MOL      0.046929
     35 H15         0.9490    7.3100   -1.0050 hc        1 MOL      0.046929
     36 H16        -1.4360    7.7010   -1.9570 hx        1 MOL      0.091002
     37 H17        -1.0040    6.5690   -3.2190 hx        1 MOL      0.091002
     38 H18        -0.5190    8.7390   -3.8540 hn        1 MOL      0.318974
     39 H19         0.3920    9.0300   -2.5860 hn        1 MOL      0.318974
     40 H20         0.9940    8.0300   -3.7160 hn        1 MOL      0.318974
     41 N4          3.0610    3.3450    2.0100 n         1 MOL     -0.276892
     42 C13         3.7470    3.2220    3.2410 c3        1 MOL      0.160019
     43 C14         5.1160    2.5670    3.1120 c         1 MOL      0.326046
     44 O6          5.9090    2.4520    4.1280 o         1 MOL     -0.506472
     45 C15         2.9700    2.5910    4.3620 c3        1 MOL     -0.244615
     46 C16         2.0710    1.4480    3.9410 c         1 MOL      0.898518
     47 O7          2.6340    0.7060    3.1390 o         1 MOL     -0.760065
     48 O8          0.9260    1.2450    4.3360 o         1 MOL     -0.760065
     49 H21         2.6110    2.5290    1.6160 hn        1 MOL      0.160611
     50 H22         3.9180    4.2480    3.5730 h1        1 MOL      0.056731
     51 H23         2.2570    3.3390    4.7240 hc        1 MOL      0.034462
     52 H24         3.6190    2.2240    5.1660 hc        1 MOL      0.034462
     53 N5          5.4120    2.1110    1.9030 n         1 MOL     -0.172937
     54 C17         6.7870    1.6340    1.6540 c3        1 MOL     -0.166864
     55 C18         7.0880    0.2280    2.2040 c         1 MOL      0.503019
     56 O9          7.9750   -0.1270    2.9450 o         1 MOL     -0.574067
     57 H25         4.7660    2.0950    1.1290 hn        1 MOL      0.205458
     58 H26         7.5460    2.3610    1.9590 h1        1 MOL      0.088629
     59 H27         7.1030    1.6850    0.6120 h1        1 MOL      0.088629
     60 N6          6.3190   -0.7080    1.6880 n         1 MOL     -0.016256
     61 C19         6.6310   -2.1510    1.8350 c3        1 MOL     -0.097641
     62 C20         6.8010   -2.8440    0.4910 c         1 MOL      0.453464
     63 O10         7.0330   -4.0580    0.5350 o         1 MOL     -0.529668
     64 C21         5.5130   -2.7830    2.6670 c3        1 MOL     -0.042352
     65 C22         4.1560   -2.3120    2.2800 c         1 MOL      0.685567
     66 O11         3.2900   -2.0250    3.1210 o         1 MOL     -0.715665
     67 O12         3.8470   -2.3960    1.0510 o         1 MOL     -0.715665
     68 H28         5.5450   -0.3610    1.1340 hn        1 MOL     -0.000505
     69 H29         7.5660   -2.2690    2.4080 h1        1 MOL      0.121277
     70 H30         5.5710   -2.5650    3.7340 hc        1 MOL      0.031182
     71 H31         5.5650   -3.8720    2.5760 hc        1 MOL      0.031182
     72 N7          6.6250   -2.1670   -0.6430 n         1 MOL     -0.369948
     73 C23         6.6480   -2.7910   -2.0000 c3        1 MOL      0.118665
     74 C24         5.4290   -3.6070   -2.4640 c         1 MOL      0.346098
     75 O13         5.4070   -4.3610   -3.4410 o         1 MOL     -0.535725
     76 H32         6.2620   -1.2290   -0.5360 hn        1 MOL      0.193874
     77 H33         7.4770   -3.4710   -2.2020 h1        1 MOL      0.043862
     78 H34         6.8580   -2.0230   -2.7450 h1        1 MOL      0.043862
     79 N8          4.3410   -3.4020   -1.6890 n         1 MOL     -0.069539
     80 C25         3.0130   -3.9820   -1.9480 c3        1 MOL     -0.041206
     81 C26         1.8090   -3.0740   -1.7430 c         1 MOL      0.503861
     82 O14         1.8920   -2.1400   -0.9640 o         1 MOL     -0.682270
     83 C27         2.7930   -5.2570   -1.0840 c3        1 MOL      0.525793
     84 C28         3.7040   -6.3810   -1.5160 c3        1 MOL     -0.540957
     85 O15         3.1470   -5.0140    0.3220 oh        1 MOL     -0.678904
     86 H35         4.4810   -2.7620   -0.9240 hn        1 MOL      0.054210
     87 H36         2.9400   -4.2950   -2.9830 h1        1 MOL      0.045288
     88 H37         1.7380   -5.5130   -1.2400 h1        1 MOL     -0.084800
     89 H38         3.1990   -4.0610    0.4740 ho        1 MOL      0.477887
     90 H39         3.4530   -7.2750   -0.9360 hc        1 MOL      0.141934
     91 H40         3.6320   -6.5070   -2.5910 hc        1 MOL      0.141934
     92 H41         4.7490   -6.2120   -1.2490 hc        1 MOL      0.141934
     93 N9          0.6440   -3.3020   -2.3670 n         1 MOL     -0.364027
     94 C29        -0.5680   -2.4170   -2.2700 c3        1 MOL      0.066127
     95 C30        -1.7690   -3.1120   -1.7050 c         1 MOL      0.411337
     96 O16        -2.1240   -4.1870   -2.1750 o         1 MOL     -0.526958
     97 C31        -0.8720   -1.7640   -3.6450 c3        1 MOL     -0.069584
     98 C32         0.2890   -0.8480   -4.0080 c3        1 MOL      0.274162
     99 C33        -2.1740   -1.0320   -3.8050 c3        1 MOL     -0.301957
    100 C34         0.4670   -0.4210   -5.4360 c3        1 MOL     -0.181650
    101 H42         0.6130   -4.0250   -3.0630 hn        1 MOL      0.248877
    102 H43        -0.2810   -1.5950   -1.6170 h1        1 MOL      0.068072
    103 H44        -0.8820   -2.5360   -4.4140 hc        1 MOL      0.038368
    104 H45         1.2230   -1.3930   -3.8470 hc        1 MOL     -0.026897
    105 H46         0.1680    0.0270   -3.3630 hc        1 MOL     -0.026897
    106 H47        -2.8850   -1.8550   -3.8790 hc        1 MOL      0.082222
    107 H48        -2.3990   -0.3560   -2.9760 hc        1 MOL      0.082222
    108 H49        -2.1680   -0.5110   -4.7570 hc        1 MOL      0.082222
    109 H50         0.6700   -1.2810   -6.0810 hc        1 MOL      0.023982
    110 H51        -0.4740   -0.0370   -5.8190 hc        1 MOL      0.023982
    111 H52         1.2510    0.3290   -5.5380 hc        1 MOL      0.023982
    112 N10        -2.3220   -2.7140   -0.5020 n         1 MOL     -0.169275
    113 C35        -3.5410   -3.2260    0.1900 c3        1 MOL     -0.029042
    114 C36        -4.7440   -2.4840   -0.4630 c         1 MOL      0.339637
    115 O17        -4.5440   -1.5060   -1.1390 o         1 MOL     -0.242151
    116 C37        -3.5170   -2.8940    1.6760 c3        1 MOL      0.256712
    117 C38        -2.4590   -3.7660    2.2560 c3        1 MOL     -0.538087
    118 O18        -3.1680   -1.5840    1.9540 oh        1 MOL     -0.627707
    119 H53        -1.8160   -1.9270   -0.1370 hn        1 MOL      0.161173
    120 H54        -3.6960   -4.2860   -0.0130 h1        1 MOL      0.092157
    121 H55        -4.5110   -3.0130    2.1220 h1        1 MOL      0.043585
    122 H56        -2.2530   -1.4010    1.7360 ho        1 MOL      0.409766
    123 H57        -2.2540   -3.4140    3.2720 hc        1 MOL      0.150904
    124 H58        -2.7900   -4.7810    2.0680 hc        1 MOL      0.150904
    125 H59        -1.5080   -3.6300    1.7370 hc        1 MOL      0.150904
    126 N11        -6.0110   -2.9520   -0.2380 n         1 MOL     -0.428868
    127 C39        -7.2760   -2.3560   -0.7310 c3        1 MOL      0.048228
    128 C40        -7.3260   -0.8640   -0.6230 c         1 MOL      0.310556
    129 O19        -7.7220   -0.1230   -1.5270 o         1 MOL     -0.501066
    130 C41        -8.4650   -3.0150   -0.1850 c3        1 MOL      0.180897
    131 C42        -8.6740   -4.3950   -0.6950 c3        1 MOL     -0.450015
    132 O20        -8.4590   -3.0110    1.2500 oh        1 MOL     -0.615988
    133 H60        -6.1180   -3.5020    0.5960 hn        1 MOL      0.279259
    134 H61        -7.2990   -2.4990   -1.8170 h1        1 MOL      0.128337
    135 H62        -9.3120   -2.4000   -0.4710 h1        1 MOL      0.059883
    136 H63        -9.3550   -3.2920    1.4040 ho        1 MOL      0.415954
    137 H64        -7.7770   -4.9970   -0.5700 hc        1 MOL      0.135652
    138 H65        -9.4980   -4.7870   -0.0920 hc        1 MOL      0.135652
    139 H66        -8.7570   -4.3910   -1.7860 hc        1 MOL      0.135652
    140 N12        -7.0170   -0.3570    0.5660 n         1 MOL     -0.100623
    141 C43        -7.1270    1.0750    1.0410 c3        1 MOL     -0.281137
    142 C44        -5.9650    1.9420    0.4520 c         1 MOL      0.429946
    143 O21        -5.9780    3.2010    0.6270 o         1 MOL     -0.531455
    144 C45        -7.1330    1.1090    2.5620 c3        1 MOL     -0.044030
    145 C46        -6.1740    0.1840    3.3870 c3        1 MOL      0.272092
    146 C47        -6.0570    0.6840    4.8710 c3        1 MOL     -0.225433
    147 C48        -7.5020    0.7330    5.4420 c3        1 MOL      0.182263
    148 N13        -7.5800    1.2330    6.8710 n4        1 MOL     -0.487967
    149 H67        -6.8550   -1.0800    1.2500 hn        1 MOL      0.200170
    150 H68        -8.1130    1.4510    0.7450 h1        1 MOL      0.192347
    151 H69        -8.1250    0.6950    2.7840 hc        1 MOL      0.031065
    152 H70        -7.0210    2.1260    2.9320 hc        1 MOL      0.031065
    153 H71        -5.1950    0.1140    2.9200 hc        1 MOL     -0.033200
    154 H72        -6.5770   -0.8320    3.3180 hc        1 MOL     -0.033200
    155 H73        -5.5510    1.6470    4.8700 hc        1 MOL      0.083571
    156 H74        -5.4480    0.0590    5.5170 hc        1 MOL      0.083571
    157 H75        -7.9680   -0.2360    5.2870 hx        1 MOL      0.031077
    158 H76        -8.0910    1.3660    4.7920 hx        1 MOL      0.031077
    159 H77        -6.9580    0.6310    7.3880 hn        1 MOL      0.364466
    160 H78        -7.1870    2.1630    6.8760 hn        1 MOL      0.364466
    161 H79        -8.5160    1.1540    7.2320 hn        1 MOL      0.364466
    162 N14        -4.9800    1.3610   -0.2440 n         1 MOL     -0.026276
    163 C49        -4.0670    2.0180   -1.1570 c3        1 MOL     -0.115287
    164 C50        -4.4370    1.8840   -2.6370 c         1 MOL      0.429285
    165 O22        -4.0750    2.7550   -3.4770 o         1 MOL     -0.559897
    166 C51        -2.6370    1.5050   -0.9930 c3        1 MOL      0.050642
    167 C52        -2.0230    1.7070    0.4420 c3        1 MOL     -0.166006
    168 C53        -0.7400    0.9130    0.6880 c         1 MOL      0.741640
    169 O23        -0.7610   -0.3360    0.5960 o         1 MOL     -0.737920
    170 O24         0.2970    1.4930    0.9610 o         1 MOL     -0.737920
    171 H80        -4.8940    0.3480   -0.2110 hn        1 MOL      0.053054
    172 H81        -4.0770    3.0760   -0.8680 h1        1 MOL      0.084173
    173 H82        -1.8780    1.9810   -1.6080 hc        1 MOL      0.074975
    174 H83        -2.7060    0.4230   -1.0850 hc        1 MOL      0.074975
    175 H84        -2.8210    1.4460    1.1380 hc        1 MOL      0.021825
    176 H85        -1.7920    2.7780    0.4310 hc        1 MOL      0.021825
    177 N15        -5.1840    0.8610   -3.0240 n         1 MOL     -0.159074
    178 C54        -5.5580    0.6100   -4.4270 c3        1 MOL     -0.139322
    179 H86        -5.0900   -0.3140   -4.7670 h1        1 MOL      0.078294
    180 H87        -6.6420    0.5170   -4.5040 h1        1 MOL      0.078294
    181 H88        -5.2190    1.4390   -5.0490 h1        1 MOL      0.078294
    182 H89        -5.2850    0.1230   -2.3460 hn        1 MOL      0.128897
    183 Ca1         1.6890   -0.8380    1.4330 Ca        1 MOL      1.755247
    184 O25        -0.3030   -1.0360    3.5890 oh        1 MOL     -0.812416
    185 H90        -1.1210   -1.1250    4.0760 ho        1 MOL      0.382483
    186 H91         0.0090   -0.1590    3.7970 ho        1 MOL      0.382483
    187 O26         0.9320   -3.4000    1.5990 oh        1 MOL     -0.812416
    188 H92         0.8130   -3.5460    2.5420 ho        1 MOL      0.382483
    189 H93         1.3410   -4.2130    1.2760 ho        1 MOL      0.382483
@<TRIPOS>BOND
     1    1    2 1   
     2    1    4 1   
     3    1    5 1   
     4    1    6 1   
     5    2    3 2   
     6    2    7 1   
     7    7    8 1   
     8    7   15 1   
     9    8    9 1   
    10    8   11 1   
    11    8   16 1   
    12    9   10 2   
    13    9   19 1   
    14   11   12 1   
    15   11   17 1   
    16   11   18 1   
    17   12   13 1   
    18   12   14 1   
    19   19   20 1   
    20   19   28 1   
    21   20   21 1   
    22   20   23 1   
    23   20   29 1   
    24   21   22 2   
    25   21   41 1   
    26   23   24 1   
    27   23   30 1   
    28   23   31 1   
    29   24   25 1   
    30   24   32 1   
    31   24   33 1   
    32   25   26 1   
    33   25   34 1   
    34   25   35 1   
    35   26   27 1   
    36   26   36 1   
    37   26   37 1   
    38   27   38 1   
    39   27   39 1   
    40   27   40 1   
    41   41   42 1   
    42   41   49 1   
    43   42   43 1   
    44   42   45 1   
    45   42   50 1   
    46   43   44 2   
    47   43   53 1   
    48   45   46 1   
    49   45   51 1   
    50   45   52 1   
    51   46   47 1   
    52   46   48 1   
    53   53   54 1   
    54   53   57 1   
    55   54   55 1   
    56   54   58 1   
    57   54   59 1   
    58   55   56 2   
    59   55   60 1   
    60   60   61 1   
    61   60   68 1   
    62   61   62 1   
    63   61   64 1   
    64   61   69 1   
    65   62   63 2   
    66   62   72 1   
    67   64   65 1   
    68   64   70 1   
    69   64   71 1   
    70   65   66 1   
    71   65   67 1   
    72   72   73 1   
    73   72   76 1   
    74   73   74 1   
    75   73   77 1   
    76   73   78 1   
    77   74   75 2   
    78   74   79 1   
    79   79   80 1   
    80   79   86 1   
    81   80   81 1   
    82   80   83 1   
    83   80   87 1   
    84   81   82 2   
    85   81   93 1   
    86   83   84 1   
    87   83   85 1   
    88   83   88 1   
    89   84   90 1   
    90   84   91 1   
    91   84   92 1   
    92   85   89 1   
    93   93   94 1   
    94   93  101 1   
    95   94   95 1   
    96   94   97 1   
    97   94  102 1   
    98   95   96 2   
    99   95  112 1   
   100   97   98 1   
   101   97   99 1   
   102   97  103 1   
   103   98  100 1   
   104   98  104 1   
   105   98  105 1   
   106   99  106 1   
   107   99  107 1   
   108   99  108 1   
   109  100  109 1   
   110  100  110 1   
   111  100  111 1   
   112  112  113 1   
   113  112  119 1   
   114  113  114 1   
   115  113  116 1   
   116  113  120 1   
   117  114  115 2   
   118  114  126 1   
   119  116  117 1   
   120  116  118 1   
   121  116  121 1   
   122  117  123 1   
   123  117  124 1   
   124  117  125 1   
   125  118  122 1   
   126  126  127 1   
   127  126  133 1   
   128  127  128 1   
   129  127  130 1   
   130  127  134 1   
   131  128  129 2   
   132  128  140 1   
   133  130  131 1   
   134  130  132 1   
   135  130  135 1   
   136  131  137 1   
   137  131  138 1   
   138  131  139 1   
   139  132  136 1   
   140  140  141 1   
   141  140  149 1   
   142  141  142 1   
   143  141  144 1   
   144  141  150 1   
   145  142  143 2   
   146  142  162 1   
   147  144  145 1   
   148  144  151 1   
   149  144  152 1   
   150  145  146 1   
   151  145  153 1   
   152  145  154 1   
   153  146  147 1   
   154  146  155 1   
   155  146  156 1   
   156  147  148 1   
   157  147  157 1   
   158  147  158 1   
   159  148  159 1   
   160  148  160 1   
   161  148  161 1   
   162  162  163 1   
   163  162  171 1   
   164  163  164 1   
   165  163  166 1   
   166  163  172 1   
   167  164  165 2   
   168  164  177 1   
   169  166  167 1   
   170  166  173 1   
   171  166  174 1   
   172  167  168 1   
   173  167  175 1   
   174  167  176 1   
   175  168  169 1   
   176  168  170 1   
   177  177  178 1   
   178  177  182 1   
   179  178  179 1   
   180  178  180 1   
   181  178  181 1   
   182  184  185 1   
   183  184  186 1   
   184  187  188 1   
   185  187  189 1   
@<TRIPOS>SUBSTRUCTURE
     1 MOL         1 TEMP              0 ****  ****    0 ROOT
