@<TRIPOS>MOLECULE
MOL
  189   185     1     0     0
SMALL
resp


@<TRIPOS>ATOM
      1 C1         -0.3100    1.6830    6.1450 c3        1 MOL     -0.278191
      2 C2         -0.6650    1.5340    4.6900 c         1 MOL      0.741224
      3 O1          0.0030    1.9490    3.7630 o         1 MOL     -0.625493
      4 H1          0.4600    2.4460    6.2530 hc        1 MOL      0.067190
      5 H2         -1.1960    1.9790    6.7070 hc        1 MOL      0.067190
      6 H3          0.0640    0.7340    6.5270 hc        1 MOL      0.067190
      7 N1         -1.7990    0.8650    4.4310 n         1 MOL     -0.607556
      8 C3         -2.3870    0.8940    3.0940 c3        1 MOL      0.228563
      9 C4         -2.5970    2.3320    2.7060 c         1 MOL      0.497743
     10 O2         -3.4220    2.9620    3.4020 o         1 MOL     -0.589170
     11 C5         -3.6420    0.1070    3.0660 c3        1 MOL     -0.107836
     12 C6         -4.2520    0.0820    1.6750 c         1 MOL      0.822845
     13 O3         -5.4390   -0.0850    1.4410 o         1 MOL     -0.714979
     14 O4         -3.4750    0.1540    0.7060 o         1 MOL     -0.714979
     15 H4         -2.3060    0.4870    5.2230 hn        1 MOL      0.313296
     16 H5         -1.6820    0.4390    2.4020 h1        1 MOL     -0.088623
     17 H6         -4.3940    0.5110    3.7470 hc        1 MOL      0.011615
     18 H7         -3.4380   -0.9130    3.3900 hc        1 MOL      0.011615
     19 N2         -1.9860    2.8340    1.6460 n         1 MOL     -0.165677
     20 C7         -1.7680    4.2520    1.3540 c3        1 MOL     -0.002663
     21 C8         -2.8080    4.8070    0.4040 c         1 MOL      0.540688
     22 O5         -3.0610    6.0260    0.4150 o         1 MOL     -0.581099
     23 C9         -0.3570    4.3210    0.8530 c3        1 MOL     -0.079377
     24 C10         0.0940    5.7560    0.3740 c3        1 MOL     -0.049061
     25 C11        -0.1130    6.9160    1.4340 c3        1 MOL     -0.158879
     26 C12         0.5660    8.1450    0.7810 c3        1 MOL      0.144132
     27 N3          0.4120    9.4100    1.5690 n4        1 MOL     -0.438718
     28 H8         -1.5090    2.1770    1.0460 hn        1 MOL      0.138168
     29 H9         -1.8860    4.8310    2.2740 h1        1 MOL      0.059677
     30 H10        -0.2280    3.6390    0.0050 hc        1 MOL      0.090232
     31 H11         0.2870    3.9770    1.6690 hc        1 MOL      0.090232
     32 H12        -0.3150    5.9580   -0.6090 hc        1 MOL      0.024149
     33 H13         1.1600    5.6190    0.1740 hc        1 MOL      0.024149
     34 H14         0.2780    6.6650    2.4170 hc        1 MOL      0.078457
     35 H15        -1.1720    7.1240    1.5720 hc        1 MOL      0.078457
     36 H16         0.2480    8.2730   -0.2460 hx        1 MOL      0.053645
     37 H17         1.6230    7.9250    0.6110 hx        1 MOL      0.053645
     38 H18        -0.5860    9.5970    1.6140 hn        1 MOL      0.343572
     39 H19         0.7040    9.3210    2.5280 hn        1 MOL      0.343572
     40 H20         0.7610   10.2320    1.0910 hn        1 MOL      0.343572
     41 N4         -3.4960    3.8710   -0.2610 n         1 MOL     -0.410369
     42 C13        -4.4910    4.1240   -1.2950 c3        1 MOL     -0.043029
     43 C14        -5.8300    3.2320   -1.3810 c         1 MOL      0.393274
     44 O6         -6.5260    3.2900   -2.4000 o         1 MOL     -0.471195
     45 C15        -3.8240    4.1390   -2.6930 c3        1 MOL     -0.138599
     46 C16        -2.8710    2.9410   -2.9030 c         1 MOL      0.906392
     47 O7         -2.6670    2.0410   -2.1060 o         1 MOL     -0.769693
     48 O8         -2.2130    3.0000   -3.9300 o         1 MOL     -0.769693
     49 H21        -3.0380    2.9660   -0.2500 hn        1 MOL      0.197197
     50 H22        -4.7640    5.1590   -1.1010 h1        1 MOL      0.099031
     51 H23        -3.3040    5.0890   -2.8120 hc        1 MOL      0.042791
     52 H24        -4.5320    4.1450   -3.5270 hc        1 MOL      0.042791
     53 N5         -6.0600    2.4440   -0.3250 n         1 MOL     -0.182063
     54 C17        -7.4010    1.8280   -0.2330 c3        1 MOL     -0.308601
     55 C18        -7.6250    0.5470   -1.0500 c         1 MOL      0.604244
     56 O9         -8.7350    0.3490   -1.5270 o         1 MOL     -0.591797
     57 H25        -5.4370    2.4200    0.4580 hn        1 MOL      0.239453
     58 H26        -8.1280    2.5950   -0.4670 h1        1 MOL      0.134031
     59 H27        -7.4170    1.5460    0.8240 h1        1 MOL      0.134031
     60 N6         -6.6400   -0.2950   -1.2410 n         1 MOL     -0.177029
     61 C19        -6.8380   -1.6460   -1.8630 c3        1 MOL      0.013215
     62 C20        -6.7360   -2.8060   -0.8340 c         1 MOL      0.330775
     63 O10        -6.8730   -4.0160   -1.1710 o         1 MOL     -0.528088
     64 C21        -5.8690   -1.9760   -3.0200 c3        1 MOL     -0.157099
     65 C22        -4.4400   -1.5760   -2.6460 c         1 MOL      0.609337
     66 O11        -3.9710   -0.4960   -3.0420 o         1 MOL     -0.645316
     67 O12        -3.7220   -2.2210   -1.8180 o         1 MOL     -0.645316
     68 H28        -5.7760   -0.1080   -0.7510 hn        1 MOL      0.091985
     69 H29        -7.8390   -1.7120   -2.2800 h1        1 MOL      0.118269
     70 H30        -6.1760   -1.4120   -3.8960 hc        1 MOL      0.067245
     71 H31        -5.8850   -3.0580   -3.1860 hc        1 MOL      0.067245
     72 N7         -6.2170   -2.5530    0.3440 n         1 MOL     -0.169340
     73 C23        -6.0160   -3.5570    1.3690 c3        1 MOL     -0.050125
     74 C24        -4.7200   -4.3970    1.1650 c         1 MOL      0.487367
     75 O13        -4.6830   -5.4760    1.6960 o         1 MOL     -0.565761
     76 H32        -5.7790   -1.6420    0.4200 hn        1 MOL      0.171843
     77 H33        -6.8710   -4.2330    1.4150 h1        1 MOL      0.073144
     78 H34        -6.0220   -3.0530    2.3360 h1        1 MOL      0.073144
     79 N8         -3.7330   -3.8620    0.4900 n         1 MOL     -0.034375
     80 C25        -2.4890   -4.5540    0.0830 c3        1 MOL     -0.430609
     81 C26        -1.2730   -3.6760    0.3320 c         1 MOL      0.589898
     82 O14        -1.3060   -2.4780    0.1390 o         1 MOL     -0.660707
     83 C27        -2.5630   -5.2180   -1.2970 c3        1 MOL      0.491477
     84 C28        -3.9810   -5.7440   -1.6020 c3        1 MOL     -0.475503
     85 O15        -2.2600   -4.4120   -2.4290 oh        1 MOL     -0.706353
     86 H35        -3.8420   -3.0140   -0.0530 hn        1 MOL      0.050433
     87 H36        -2.4930   -5.3580    0.8170 h1        1 MOL      0.127002
     88 H37        -1.8680   -6.0640   -1.2730 h1        1 MOL      0.010780
     89 H38        -2.7410   -3.5920   -2.2560 ho        1 MOL      0.463708
     90 H39        -3.7930   -6.4590   -2.4030 hc        1 MOL      0.128322
     91 H40        -4.3180   -6.3290   -0.7560 hc        1 MOL      0.128322
     92 H41        -4.7000   -4.9320   -1.7540 hc        1 MOL      0.128322
     93 N9         -0.1970   -4.2540    0.8470 n         1 MOL     -0.414812
     94 C29         1.0240   -3.5500    1.2920 c3        1 MOL      0.010631
     95 C30         2.1350   -3.9850    0.3200 c         1 MOL      0.392572
     96 O16         2.6430   -5.0960    0.3220 o         1 MOL     -0.522708
     97 C31         1.3730   -3.9900    2.6930 c3        1 MOL      0.005352
     98 C32         0.2610   -3.5000    3.7130 c3        1 MOL     -0.199522
     99 C33         2.7550   -3.6230    3.2160 c3        1 MOL     -0.030244
    100 C34        -0.1370   -2.0060    3.8090 c3        1 MOL     -0.065726
    101 H42        -0.2720   -5.2260    1.1160 hn        1 MOL      0.289643
    102 H43         0.9000   -2.4670    1.2550 h1        1 MOL      0.242225
    103 H44         1.2840   -5.0720    2.7630 hc        1 MOL      0.039350
    104 H45         0.4430   -3.9420    4.7040 hc        1 MOL      0.065638
    105 H46        -0.7090   -3.9450    3.5030 hc        1 MOL      0.065638
    106 H47         2.9920   -4.2120    4.1030 hc        1 MOL     -0.005321
    107 H48         3.5640   -3.7660    2.4880 hc        1 MOL     -0.005321
    108 H49         2.8080   -2.5490    3.3640 hc        1 MOL     -0.005321
    109 H50        -0.3310   -1.5540    2.8340 hc        1 MOL      0.043418
    110 H51        -1.0190   -1.9230    4.4510 hc        1 MOL      0.043418
    111 H52         0.6130   -1.4070    4.3220 hc        1 MOL      0.043418
    112 N10         2.4370   -2.9970   -0.5090 n         1 MOL     -0.214650
    113 C35         3.5880   -2.9390   -1.5060 c3        1 MOL     -0.068456
    114 C36         4.8640   -2.5980   -0.7370 c         1 MOL      0.395051
    115 O17         4.7670   -2.0440    0.3580 o         1 MOL     -0.282598
    116 C37         3.4110   -1.9240   -2.6020 c3        1 MOL      0.190907
    117 C38         2.3040   -2.1750   -3.6670 c3        1 MOL     -0.204490
    118 O18         3.2100   -0.6840   -2.0550 oh        1 MOL     -0.522590
    119 H53         1.9820   -2.1190   -0.3140 hn        1 MOL      0.174115
    120 H54         3.8680   -3.9010   -1.9340 h1        1 MOL      0.104455
    121 H55         4.4040   -1.8810   -3.0540 h1        1 MOL     -0.021424
    122 H56         2.3440   -0.7400   -1.6470 ho        1 MOL      0.323994
    123 H57         2.0130   -1.3010   -4.2500 hc        1 MOL      0.058908
    124 H58         2.5020   -2.9860   -4.3550 hc        1 MOL      0.058908
    125 H59         1.4040   -2.4950   -3.1450 hc        1 MOL      0.058908
    126 N11         6.0250   -2.8810   -1.3230 n         1 MOL     -0.328960
    127 C39         7.3880   -2.4770   -0.8560 c3        1 MOL      0.001523
    128 C40         7.4520   -1.1090   -0.2660 c         1 MOL      0.249566
    129 O19         7.8810   -1.0320    0.8920 o         1 MOL     -0.469332
    130 C41         8.2780   -2.5400   -2.1240 c3        1 MOL      0.402357
    131 C42         9.7500   -2.4410   -1.8960 c3        1 MOL     -0.341037
    132 O20         8.0440   -3.8000   -2.8320 oh        1 MOL     -0.609326
    133 H60         5.9910   -3.5370   -2.0940 hn        1 MOL      0.235653
    134 H61         7.8650   -3.1230   -0.1160 h1        1 MOL      0.139644
    135 H62         8.0810   -1.7830   -2.8770 h1        1 MOL     -0.047725
    136 H63         8.3350   -3.6630   -3.7380 ho        1 MOL      0.380717
    137 H64        10.4440   -2.4690   -2.7330 hc        1 MOL      0.094066
    138 H65         9.9520   -1.4130   -1.5700 hc        1 MOL      0.094066
    139 H66        10.0920   -3.1750   -1.1560 hc        1 MOL      0.094066
    140 N12         6.8810   -0.0520   -0.8050 n         1 MOL     -0.326954
    141 C43         6.7780    1.2630   -0.1410 c3        1 MOL      0.174324
    142 C44         5.8620    1.2930    1.1090 c         1 MOL      0.213529
    143 O21         6.2040    1.9760    2.0670 o         1 MOL     -0.501216
    144 C45         6.1910    2.2550   -1.1840 c3        1 MOL     -0.265046
    145 C46         7.1400    3.0740   -2.0940 c3        1 MOL      0.176472
    146 C47         6.3930    3.8770   -3.1730 c3        1 MOL     -0.043122
    147 C48         7.4500    4.8160   -3.8850 c3        1 MOL     -0.018725
    148 N13         6.6610    5.8030   -4.6110 n4        1 MOL     -0.205087
    149 H67         6.4310   -0.2510   -1.6920 hn        1 MOL      0.260770
    150 H68         7.7620    1.6350    0.1370 h1        1 MOL      0.091728
    151 H69         5.7260    3.0000   -0.5360 hc        1 MOL      0.068482
    152 H70         5.3660    1.7990   -1.7260 hc        1 MOL      0.068482
    153 H71         7.8590    2.3930   -2.5470 hc        1 MOL     -0.025816
    154 H72         7.7730    3.7610   -1.5220 hc        1 MOL     -0.025816
    155 H73         5.6560    4.4780   -2.6540 hc        1 MOL      0.044638
    156 H74         5.9380    3.1900   -3.8860 hc        1 MOL      0.044638
    157 H75         8.0230    4.1810   -4.5630 hx        1 MOL      0.096815
    158 H76         8.1560    5.3070   -3.2210 hx        1 MOL      0.096815
    159 H77         5.8270    5.5080   -5.1000 hn        1 MOL      0.280536
    160 H78         6.3120    6.5130   -3.9740 hn        1 MOL      0.280536
    161 H79         7.2080    6.3260   -5.2720 hn        1 MOL      0.280536
    162 N14         4.7250    0.6490    1.1600 n         1 MOL     -0.033100
    163 C49         3.8990    0.7510    2.3510 c3        1 MOL     -0.054287
    164 C50         4.4130   -0.0930    3.4420 c         1 MOL      0.465086
    165 O22         4.2330    0.3170    4.5660 o         1 MOL     -0.568205
    166 C51         2.5630    0.2340    1.8310 c3        1 MOL      0.261688
    167 C52         1.8990    1.0260    0.7820 c3        1 MOL     -0.002637
    168 C53         0.6800    0.3290    0.0950 c         1 MOL      0.628258
    169 O23        -0.4640    0.7610    0.2910 o         1 MOL     -0.615074
    170 O24         0.8840   -0.6670   -0.6250 o         1 MOL     -0.615074
    171 H80         4.2820    0.1220    0.4200 hn        1 MOL      0.175508
    172 H81         3.7280    1.7560    2.7290 h1        1 MOL      0.089413
    173 H82         1.8070    0.1990    2.6080 hc        1 MOL     -0.070058
    174 H83         2.7270   -0.6880    1.2570 hc        1 MOL     -0.070058
    175 H84         2.6210    1.3360    0.0260 hc        1 MOL     -0.082238
    176 H85         1.7150    1.9670    1.3130 hc        1 MOL     -0.082238
    177 N15         5.0930   -1.1590    3.1090 n         1 MOL     -0.008639
    178 C54         5.9260   -1.9060    4.1040 c3        1 MOL     -0.432801
    179 H86         6.4540   -1.1960    4.7410 h1        1 MOL      0.145741
    180 H87         5.2830   -2.5350    4.7180 h1        1 MOL      0.145741
    181 H88         6.6500   -2.5290    3.5770 h1        1 MOL      0.145741
    182 H89         4.9840   -1.5310    2.1660 hn        1 MOL      0.100021
    183 Ca1        -1.9520   -0.3560   -1.3230 Ca        1 MOL      1.767433
    184 O25        -1.1070   -1.9960   -3.3480 oh        1 MOL     -0.898455
    185 H90        -0.8320   -2.1220   -4.2570 ho        1 MOL      0.421150
    186 H91        -1.1080   -2.8770   -2.9730 ho        1 MOL      0.421150
    187 O26        -0.7340    0.8970   -3.6060 oh        1 MOL     -0.898455
    188 H92        -1.1820    1.7310   -3.6710 ho        1 MOL      0.421150
    189 H93        -0.8890    0.4790   -4.4570 ho        1 MOL      0.421150
@<TRIPOS>BOND
     1    1    2 1   
     2    1    4 1   
     3    1    5 1   
     4    1    6 1   
     5    2    3 2   
     6    2    7 1   
     7    7    8 1   
     8    7   15 1   
     9    8    9 1   
    10    8   11 1   
    11    8   16 1   
    12    9   10 2   
    13    9   19 1   
    14   11   12 1   
    15   11   17 1   
    16   11   18 1   
    17   12   13 1   
    18   12   14 1   
    19   19   20 1   
    20   19   28 1   
    21   20   21 1   
    22   20   23 1   
    23   20   29 1   
    24   21   22 2   
    25   21   41 1   
    26   23   24 1   
    27   23   30 1   
    28   23   31 1   
    29   24   25 1   
    30   24   32 1   
    31   24   33 1   
    32   25   26 1   
    33   25   34 1   
    34   25   35 1   
    35   26   27 1   
    36   26   36 1   
    37   26   37 1   
    38   27   38 1   
    39   27   39 1   
    40   27   40 1   
    41   41   42 1   
    42   41   49 1   
    43   42   43 1   
    44   42   45 1   
    45   42   50 1   
    46   43   44 2   
    47   43   53 1   
    48   45   46 1   
    49   45   51 1   
    50   45   52 1   
    51   46   47 1   
    52   46   48 1   
    53   53   54 1   
    54   53   57 1   
    55   54   55 1   
    56   54   58 1   
    57   54   59 1   
    58   55   56 2   
    59   55   60 1   
    60   60   61 1   
    61   60   68 1   
    62   61   62 1   
    63   61   64 1   
    64   61   69 1   
    65   62   63 2   
    66   62   72 1   
    67   64   65 1   
    68   64   70 1   
    69   64   71 1   
    70   65   66 1   
    71   65   67 1   
    72   72   73 1   
    73   72   76 1   
    74   73   74 1   
    75   73   77 1   
    76   73   78 1   
    77   74   75 2   
    78   74   79 1   
    79   79   80 1   
    80   79   86 1   
    81   80   81 1   
    82   80   83 1   
    83   80   87 1   
    84   81   82 2   
    85   81   93 1   
    86   83   84 1   
    87   83   85 1   
    88   83   88 1   
    89   84   90 1   
    90   84   91 1   
    91   84   92 1   
    92   85   89 1   
    93   93   94 1   
    94   93  101 1   
    95   94   95 1   
    96   94   97 1   
    97   94  102 1   
    98   95   96 2   
    99   95  112 1   
   100   97   98 1   
   101   97   99 1   
   102   97  103 1   
   103   98  100 1   
   104   98  104 1   
   105   98  105 1   
   106   99  106 1   
   107   99  107 1   
   108   99  108 1   
   109  100  109 1   
   110  100  110 1   
   111  100  111 1   
   112  112  113 1   
   113  112  119 1   
   114  113  114 1   
   115  113  116 1   
   116  113  120 1   
   117  114  115 2   
   118  114  126 1   
   119  116  117 1   
   120  116  118 1   
   121  116  121 1   
   122  117  123 1   
   123  117  124 1   
   124  117  125 1   
   125  118  122 1   
   126  126  127 1   
   127  126  133 1   
   128  127  128 1   
   129  127  130 1   
   130  127  134 1   
   131  128  129 2   
   132  128  140 1   
   133  130  131 1   
   134  130  132 1   
   135  130  135 1   
   136  131  137 1   
   137  131  138 1   
   138  131  139 1   
   139  132  136 1   
   140  140  141 1   
   141  140  149 1   
   142  141  142 1   
   143  141  144 1   
   144  141  150 1   
   145  142  143 2   
   146  142  162 1   
   147  144  145 1   
   148  144  151 1   
   149  144  152 1   
   150  145  146 1   
   151  145  153 1   
   152  145  154 1   
   153  146  147 1   
   154  146  155 1   
   155  146  156 1   
   156  147  148 1   
   157  147  157 1   
   158  147  158 1   
   159  148  159 1   
   160  148  160 1   
   161  148  161 1   
   162  162  163 1   
   163  162  171 1   
   164  163  164 1   
   165  163  166 1   
   166  163  172 1   
   167  164  165 2   
   168  164  177 1   
   169  166  167 1   
   170  166  173 1   
   171  166  174 1   
   172  167  168 1   
   173  167  175 1   
   174  167  176 1   
   175  168  169 1   
   176  168  170 1   
   177  177  178 1   
   178  177  182 1   
   179  178  179 1   
   180  178  180 1   
   181  178  181 1   
   182  184  185 1   
   183  184  186 1   
   184  187  188 1   
   185  187  189 1   
@<TRIPOS>SUBSTRUCTURE
     1 MOL         1 TEMP              0 ****  ****    0 ROOT
