@<TRIPOS>MOLECULE
MOL
  179   176     1     0     0
SMALL
resp


@<TRIPOS>ATOM
      1 C1         -0.0150    3.5250    7.0250 c3        1 MOL     -0.364560
      2 C2          0.1610    3.1180    5.5590 c         1 MOL      0.751749
      3 O1          1.3300    2.8960    5.2100 o         1 MOL     -0.596847
      4 H1         -1.0310    3.2940    7.3460 hc        1 MOL      0.090376
      5 H2          0.6940    2.9750    7.6430 hc        1 MOL      0.090376
      6 H3          0.1640    4.5950    7.1300 hc        1 MOL      0.090376
      7 N1         -0.8500    2.9980    4.7500 n         1 MOL     -0.674221
      8 C3         -0.7320    2.7760    3.3450 c3        1 MOL      0.360350
      9 C4         -0.9090    3.9890    2.4560 c         1 MOL      0.461445
     10 O2         -1.3090    5.0950    2.8710 o         1 MOL     -0.548983
     11 C5         -1.8480    1.7300    3.0360 c3        1 MOL     -0.231401
     12 C6         -1.7660    1.1860    1.6470 c         1 MOL      0.705142
     13 O3         -0.6180    0.9160    1.2720 o         1 MOL     -0.663842
     14 O4         -2.7670    0.9590    0.9600 o         1 MOL     -0.663842
     15 H4         -1.7120    3.2450    5.2000 hn        1 MOL      0.322993
     16 H5          0.2570    2.3840    3.1040 h1        1 MOL     -0.005036
     17 H6         -2.8200    2.2110    3.1150 hc        1 MOL      0.050016
     18 H7         -1.8090    0.9000    3.7440 hc        1 MOL      0.050016
     19 N2         -0.5220    3.9540    1.1670 n         1 MOL     -0.337446
     20 C7         -0.3790    5.1620    0.2610 c3        1 MOL     -0.028914
     21 C8         -1.6650    5.4890   -0.4110 c         1 MOL      0.592979
     22 O5         -1.8220    6.6600   -0.7570 o         1 MOL     -0.590465
     23 C9          0.8320    4.8940   -0.6170 c3        1 MOL     -0.101440
     24 C10         1.0870    5.8480   -1.7900 c3        1 MOL     -0.021153
     25 C11         2.4430    5.5720   -2.4800 c3        1 MOL     -0.002838
     26 C12         2.6480    6.4780   -3.6610 c3        1 MOL     -0.003595
     27 N3          3.9130    6.2940   -4.3410 n4        1 MOL     -0.267790
     28 H8         -0.2550    3.0770    0.7460 hn        1 MOL      0.185126
     29 H9         -0.1920    5.9530    0.9880 h1        1 MOL      0.113788
     30 H10         0.6970    3.8620   -0.9270 hc        1 MOL      0.065478
     31 H11         1.6380    4.9440    0.1200 hc        1 MOL      0.065478
     32 H12         0.9880    6.8990   -1.5180 hc        1 MOL      0.031816
     33 H13         0.2740    5.7730   -2.4940 hc        1 MOL      0.031816
     34 H14         2.3650    4.5540   -2.8420 hc        1 MOL      0.048141
     35 H15         3.2090    5.7490   -1.7250 hc        1 MOL      0.048141
     36 H16         2.5840    7.5070   -3.3230 hx        1 MOL      0.085725
     37 H17         1.9210    6.2260   -4.4350 hx        1 MOL      0.085725
     38 H18         3.8850    6.8070   -5.2080 hn        1 MOL      0.303523
     39 H19         4.7280    6.3820   -3.7500 hn        1 MOL      0.303523
     40 H20         4.0820    5.3360   -4.6140 hn        1 MOL      0.303523
     41 N4         -2.5750    4.5220   -0.4910 n         1 MOL     -0.361713
     42 C13        -3.8360    4.6530   -1.2520 c3        1 MOL      0.046570
     43 C14        -5.0700    4.0830   -0.5110 c         1 MOL      0.518788
     44 O6         -6.1950    4.6140   -0.6150 o         1 MOL     -0.548770
     45 C15        -3.6230    4.0040   -2.6560 c3        1 MOL     -0.144769
     46 C16        -3.2980    2.5580   -2.7690 c         1 MOL      0.823308
     47 O7         -3.2360    2.0470   -3.8890 o         1 MOL     -0.723189
     48 O8         -3.1110    1.8620   -1.6790 o         1 MOL     -0.723189
     49 H21        -2.2560    3.5940   -0.2220 hn        1 MOL      0.196605
     50 H22        -4.0560    5.7070   -1.3840 h1        1 MOL      0.088352
     51 H23        -2.8340    4.5550   -3.1730 hc        1 MOL      0.034564
     52 H24        -4.5480    4.1950   -3.2070 hc        1 MOL      0.034564
     53 N5         -4.8740    3.1240    0.3910 n         1 MOL     -0.189360
     54 C17        -5.8400    2.6470    1.3720 c3        1 MOL     -0.041814
     55 C18        -6.6470    1.5000    0.7640 c         1 MOL      0.402995
     56 O9         -7.8740    1.3900    0.9720 o         1 MOL     -0.557213
     57 H25        -4.1670    2.4520    0.1100 hn        1 MOL     -0.065139
     58 H26        -6.4100    3.4840    1.7680 h1        1 MOL      0.088295
     59 H27        -5.3010    2.2760    2.2450 h1        1 MOL      0.088295
     60 N6         -6.0890    0.6200   -0.0580 n         1 MOL      0.028267
     61 C19        -6.8170   -0.4100   -0.8140 c3        1 MOL     -0.255687
     62 C20        -6.9720   -1.8250   -0.0890 c         1 MOL      0.422680
     63 O10        -7.8390   -2.5800   -0.5180 o         1 MOL     -0.502259
     64 C21        -6.2520   -0.5480   -2.2650 c3        1 MOL     -0.217408
     65 C22        -4.8570   -1.1950   -2.3300 c         1 MOL      0.772652
     66 N7         -4.3560   -1.6740   -3.4790 n         1 MOL     -0.845207
     67 O11        -4.0300   -1.1550   -1.4450 o         1 MOL     -0.652126
     68 H28        -5.0830    0.6100   -0.1550 hn        1 MOL      0.120185
     69 H29        -7.8410   -0.0280   -0.9220 h1        1 MOL      0.197153
     70 H30        -6.1750    0.3430   -2.8880 hc        1 MOL      0.104598
     71 H31        -6.8590   -1.2520   -2.8290 hc        1 MOL      0.104598
     72 H32        -4.8440   -1.5510   -4.3640 hn        1 MOL      0.351273
     73 H33        -3.4060   -2.0000   -3.5530 hn        1 MOL      0.351273
     74 N8         -6.2380   -2.1830    0.9780 n         1 MOL     -0.127452
     75 C23        -6.3580   -3.4980    1.6350 c3        1 MOL     -0.125134
     76 C24        -5.0660   -4.1610    2.0750 c         1 MOL      0.511382
     77 O12        -4.9880   -4.9630    3.0400 o         1 MOL     -0.543654
     78 H34        -5.6230   -1.4820    1.3770 hn        1 MOL      0.151661
     79 H35        -6.8180   -4.1600    0.9000 h1        1 MOL      0.093760
     80 H36        -7.0190   -3.3400    2.4880 h1        1 MOL      0.093760
     81 N9         -3.9670   -3.7330    1.3930 n         1 MOL     -0.280827
     82 C25        -2.6630   -4.1870    1.7560 c3        1 MOL      0.024743
     83 C26        -1.4890   -3.2360    1.4710 c         1 MOL      0.683092
     84 O13        -1.7100   -2.0980    1.0560 o         1 MOL     -0.665997
     85 C27        -2.4070   -5.6020    1.2520 c3        1 MOL     -0.108382
     86 C28        -2.2400   -5.6790   -0.2970 ca        1 MOL      0.027514
     87 C29        -1.0560   -5.6240   -0.9570 ca        1 MOL     -0.098669
     88 C30        -3.4100   -5.5780   -1.0540 ca        1 MOL     -0.098669
     89 C31        -1.0120   -5.5870   -2.3840 ca        1 MOL     -0.305804
     90 C32        -3.4300   -5.6060   -2.4120 ca        1 MOL     -0.305804
     91 C33        -2.1910   -5.6120   -3.1550 ca        1 MOL      0.348140
     92 O14        -2.1620   -5.5050   -4.5080 oh        1 MOL     -0.516175
     93 H37        -4.1940   -3.1890    0.5660 hn        1 MOL      0.218401
     94 H38        -2.5720   -4.2280    2.8440 h1        1 MOL      0.071742
     95 H39        -3.2390   -6.2860    1.4420 hc        1 MOL      0.050793
     96 H40        -1.5320   -5.9630    1.7870 hc        1 MOL      0.050793
     97 H41        -0.1590   -5.6220   -0.3540 ha        1 MOL      0.123770
     98 H42        -4.3910   -5.5790   -0.6170 ha        1 MOL      0.123770
     99 H43        -0.0790   -5.4550   -2.9100 ha        1 MOL      0.152862
    100 H44        -4.3870   -5.6860   -2.8850 ha        1 MOL      0.152862
    101 H45        -3.0760   -5.5290   -4.7990 ho        1 MOL      0.403126
    102 N10        -0.2800   -3.6690    1.7730 n         1 MOL     -0.573079
    103 C34         0.8960   -2.8690    1.6350 c3        1 MOL      0.101692
    104 C35         2.0940   -3.6930    1.1850 c         1 MOL      0.439104
    105 O15         2.0530   -4.9370    1.2940 o         1 MOL     -0.530036
    106 C36         1.1270   -2.0540    2.9540 c3        1 MOL      0.028250
    107 C37         2.1620   -0.9090    2.7160 c3        1 MOL      0.498275
    108 C38         1.7310   -2.9750    3.9650 c3        1 MOL     -0.385437
    109 C39         2.2100    0.2030    3.6330 c3        1 MOL     -0.266520
    110 H46        -0.2450   -4.5520    2.2680 hn        1 MOL      0.354457
    111 H47         0.6820   -2.1120    0.8680 h1        1 MOL      0.027804
    112 H48         0.2210   -1.5400    3.2450 hc        1 MOL      0.061833
    113 H49         2.0440   -0.5280    1.7050 hc        1 MOL     -0.139148
    114 H50         3.1380   -1.3740    2.5600 hc        1 MOL     -0.139148
    115 H51         2.7380   -3.3660    3.8370 hc        1 MOL      0.086717
    116 H52         1.8550   -2.4050    4.8860 hc        1 MOL      0.086717
    117 H53         1.0480   -3.8050    4.1200 hc        1 MOL      0.086717
    118 H54         1.1950    0.3220    4.0160 hc        1 MOL      0.047361
    119 H55         2.8340   -0.1960    4.4330 hc        1 MOL      0.047361
    120 H56         2.6610    1.0040    3.0430 hc        1 MOL      0.047361
    121 N11         3.1120   -3.0390    0.5210 n         1 MOL     -0.261816
    122 C40         4.3810   -3.7520    0.1080 c3        1 MOL      0.007867
    123 C41         5.6270   -2.8310    0.3920 c         1 MOL      0.288712
    124 O16         5.5090   -1.6440    0.8380 o         1 MOL     -0.263385
    125 C42         4.1970   -4.1410   -1.3370 c3        1 MOL      0.043917
    126 O17         4.4320   -2.9920   -2.0990 oh        1 MOL     -0.550738
    127 H57         2.9820   -2.0480    0.3810 hn        1 MOL      0.172085
    128 H58         4.5300   -4.6910    0.6520 h1        1 MOL      0.084712
    129 H59         3.2230   -4.5870   -1.5440 h1        1 MOL      0.065092
    130 H60         4.9400   -4.8620   -1.6830 h1        1 MOL      0.065092
    131 H61         3.6060   -2.7090   -2.5120 ho        1 MOL      0.400806
    132 N12         6.7930   -3.3530    0.2300 n         1 MOL     -0.318665
    133 C43         8.0530   -2.5710    0.5470 c3        1 MOL      0.080586
    134 C44         8.2630   -1.2890   -0.2550 c         1 MOL      0.564308
    135 O18         8.7890   -0.3740    0.3250 o         1 MOL     -0.514022
    136 C45         9.2930   -3.4020    0.5370 c3        1 MOL     -0.235929
    137 H62         6.8420   -4.2820   -0.1740 hn        1 MOL      0.288888
    138 H63         7.9380   -2.3220    1.5980 h1        1 MOL      0.093713
    139 H64         9.6900   -3.4630   -0.4780 hc        1 MOL      0.076445
    140 H65        10.0270   -2.8980    1.1610 hc        1 MOL      0.076445
    141 H66         9.0480   -4.4050    0.9030 hc        1 MOL      0.076445
    142 N13         7.8460   -1.1760   -1.5460 n         1 MOL     -0.440175
    143 C46         7.6720    0.1160   -2.2540 c3        1 MOL     -0.062725
    144 C47         6.6090    1.0670   -1.7360 c         1 MOL      0.572878
    145 O19         6.8280    2.2380   -1.8880 o         1 MOL     -0.560873
    146 C48         7.5140   -0.2170   -3.7440 c3        1 MOL     -0.201020
    147 H67         7.4940   -1.9850   -2.0560 hn        1 MOL      0.284033
    148 H68         8.6180    0.6520   -2.1420 h1        1 MOL      0.136870
    149 H69         6.5920   -0.7700   -3.9460 hc        1 MOL      0.066039
    150 H70         7.4530    0.7120   -4.3240 hc        1 MOL      0.066039
    151 H71         8.2270   -0.8880   -4.2180 hc        1 MOL      0.066039
    152 N14         5.5760    0.6860   -0.9670 n         1 MOL     -0.309103
    153 C49         4.6130    1.6210   -0.3160 c3        1 MOL      0.007303
    154 C50         5.1280    1.9170    1.1290 c         1 MOL      0.477801
    155 O20         4.9400    3.0550    1.5670 o         1 MOL     -0.546832
    156 C51         3.1970    1.0630   -0.4170 c3        1 MOL     -0.207325
    157 C52         2.5810    1.3500   -1.7940 c3        1 MOL      0.089045
    158 C53         1.1480    0.8270   -1.7040 c         1 MOL      0.696161
    159 O21         0.1760    1.6290   -1.8670 o         1 MOL     -0.788182
    160 O22         0.8930   -0.3230   -1.3610 o         1 MOL     -0.788182
    161 H72         5.5050   -0.2860   -0.6890 hn        1 MOL      0.121560
    162 H73         4.6130    2.5480   -0.8870 h1        1 MOL      0.039798
    163 H74         2.6070    1.5730    0.3430 hc        1 MOL      0.126506
    164 H75         3.1440   -0.0050   -0.1660 hc        1 MOL      0.126506
    165 H76         3.0350    0.8210   -2.6310 hc        1 MOL     -0.038839
    166 H77         2.6930    2.4110   -2.0430 hc        1 MOL     -0.038839
    167 N15         5.6730    0.9280    1.8660 n         1 MOL     -0.038207
    168 C54         6.2430    1.1340    3.2240 c3        1 MOL     -0.256388
    169 H78         7.1190    1.7790    3.1560 h1        1 MOL      0.106767
    170 H79         5.4960    1.6020    3.8660 h1        1 MOL      0.106767
    171 H80         6.5340    0.1720    3.6470 h1        1 MOL      0.106767
    172 H81         5.7400    0.0150    1.4480 hn        1 MOL      0.003201
    173 Ca1        -1.5310   -0.1420   -1.0230 Ca        1 MOL      1.784167
    174 O23        -1.1880   -2.7290   -1.9830 oh        1 MOL     -0.787789
    175 H82        -0.7260   -2.8900   -2.8070 ho        1 MOL      0.389790
    176 H83        -1.3440   -3.6040   -1.6230 ho        1 MOL      0.389790
    177 O24        -1.7000   -0.2700   -3.7370 oh        1 MOL     -0.787789
    178 H84        -2.4350    0.3460   -3.8320 ho        1 MOL      0.389790
    179 H85        -1.2620   -0.2490   -4.5890 ho        1 MOL      0.389790
@<TRIPOS>BOND
     1    1    2 1   
     2    1    4 1   
     3    1    5 1   
     4    1    6 1   
     5    2    3 2   
     6    2    7 1   
     7    7    8 1   
     8    7   15 1   
     9    8    9 1   
    10    8   11 1   
    11    8   16 1   
    12    9   10 2   
    13    9   19 1   
    14   11   12 1   
    15   11   17 1   
    16   11   18 1   
    17   12   13 1   
    18   12   14 1   
    19   19   20 1   
    20   19   28 1   
    21   20   21 1   
    22   20   23 1   
    23   20   29 1   
    24   21   22 2   
    25   21   41 1   
    26   23   24 1   
    27   23   30 1   
    28   23   31 1   
    29   24   25 1   
    30   24   32 1   
    31   24   33 1   
    32   25   26 1   
    33   25   34 1   
    34   25   35 1   
    35   26   27 1   
    36   26   36 1   
    37   26   37 1   
    38   27   38 1   
    39   27   39 1   
    40   27   40 1   
    41   41   42 1   
    42   41   49 1   
    43   42   43 1   
    44   42   45 1   
    45   42   50 1   
    46   43   44 2   
    47   43   53 1   
    48   45   46 1   
    49   45   51 1   
    50   45   52 1   
    51   46   47 1   
    52   46   48 1   
    53   53   54 1   
    54   53   57 1   
    55   54   55 1   
    56   54   58 1   
    57   54   59 1   
    58   55   56 2   
    59   55   60 1   
    60   60   61 1   
    61   60   68 1   
    62   61   62 1   
    63   61   64 1   
    64   61   69 1   
    65   62   63 2   
    66   62   74 1   
    67   64   65 1   
    68   64   70 1   
    69   64   71 1   
    70   65   66 1   
    71   65   67 2   
    72   66   72 1   
    73   66   73 1   
    74   74   75 1   
    75   74   78 1   
    76   75   76 1   
    77   75   79 1   
    78   75   80 1   
    79   76   77 2   
    80   76   81 1   
    81   81   82 1   
    82   81   93 1   
    83   82   83 1   
    84   82   85 1   
    85   82   94 1   
    86   83   84 2   
    87   83  102 1   
    88   85   86 1   
    89   85   95 1   
    90   85   96 1   
    91   86   87 ar  
    92   86   88 ar  
    93   87   89 ar  
    94   87   97 1   
    95   88   90 ar  
    96   88   98 1   
    97   89   91 ar  
    98   89   99 1   
    99   90   91 ar  
   100   90  100 1   
   101   91   92 1   
   102   92  101 1   
   103  102  103 1   
   104  102  110 1   
   105  103  104 1   
   106  103  106 1   
   107  103  111 1   
   108  104  105 2   
   109  104  121 1   
   110  106  107 1   
   111  106  108 1   
   112  106  112 1   
   113  107  109 1   
   114  107  113 1   
   115  107  114 1   
   116  108  115 1   
   117  108  116 1   
   118  108  117 1   
   119  109  118 1   
   120  109  119 1   
   121  109  120 1   
   122  121  122 1   
   123  121  127 1   
   124  122  123 1   
   125  122  125 1   
   126  122  128 1   
   127  123  124 2   
   128  123  132 1   
   129  125  126 1   
   130  125  129 1   
   131  125  130 1   
   132  126  131 1   
   133  132  133 1   
   134  132  137 1   
   135  133  134 1   
   136  133  136 1   
   137  133  138 1   
   138  134  135 2   
   139  134  142 1   
   140  136  139 1   
   141  136  140 1   
   142  136  141 1   
   143  142  143 1   
   144  142  147 1   
   145  143  144 1   
   146  143  146 1   
   147  143  148 1   
   148  144  145 2   
   149  144  152 1   
   150  146  149 1   
   151  146  150 1   
   152  146  151 1   
   153  152  153 1   
   154  152  161 1   
   155  153  154 1   
   156  153  156 1   
   157  153  162 1   
   158  154  155 2   
   159  154  167 1   
   160  156  157 1   
   161  156  163 1   
   162  156  164 1   
   163  157  158 1   
   164  157  165 1   
   165  157  166 1   
   166  158  159 1   
   167  158  160 1   
   168  167  168 1   
   169  167  172 1   
   170  168  169 1   
   171  168  170 1   
   172  168  171 1   
   173  174  175 1   
   174  174  176 1   
   175  177  178 1   
   176  177  179 1   
@<TRIPOS>SUBSTRUCTURE
     1 MOL         1 TEMP              0 ****  ****    0 ROOT
