@<TRIPOS>MOLECULE
MOL
  175   173     1     0     0
SMALL
resp


@<TRIPOS>ATOM
      1 C1         -0.2030   -3.5800    5.3330 c3        1 MOL     -0.306109
      2 C2          0.3740   -3.8380    3.9140 c         1 MOL      0.713576
      3 O1         -0.3670   -4.1080    2.9700 o         1 MOL     -0.568033
      4 H1          0.5040   -2.9810    5.9080 hc        1 MOL      0.066110
      5 H2         -1.1480   -3.0440    5.2500 hc        1 MOL      0.066110
      6 H3         -0.3670   -4.5320    5.8370 hc        1 MOL      0.066110
      7 N1          1.6680   -3.6540    3.8480 n         1 MOL     -0.679339
      8 C3          2.3970   -3.3850    2.5300 c3        1 MOL      0.399440
      9 C4          2.5040   -4.6840    1.6520 c         1 MOL      0.392760
     10 O2          2.8870   -5.7600    2.2090 o         1 MOL     -0.576982
     11 C5          3.7690   -2.8580    2.8530 c3        1 MOL     -0.528714
     12 C6          4.3210   -1.9460    1.7580 c         1 MOL      0.895676
     13 O3          5.3830   -1.3190    2.0160 o         1 MOL     -0.695436
     14 O4          3.6880   -1.8570    0.6840 o         1 MOL     -0.695436
     15 H4          2.1560   -3.4270    4.7040 hn        1 MOL      0.346505
     16 H5          1.8230   -2.6290    1.9830 h1        1 MOL      0.046414
     17 H6          4.4100   -3.7300    2.8040 hc        1 MOL      0.108223
     18 H7          3.7440   -2.3790    3.8410 hc        1 MOL      0.108223
     19 N2          2.4510   -4.5420    0.3700 n         1 MOL     -0.191492
     20 C7          2.6270   -5.5640   -0.6340 c3        1 MOL      0.053666
     21 C8          3.7310   -5.1600   -1.6880 c         1 MOL      0.422430
     22 O5          4.4890   -6.0340   -2.1260 o         1 MOL     -0.547193
     23 C9          1.3010   -5.8750   -1.2850 c3        1 MOL     -0.106601
     24 H8          2.0710   -3.6640    0.0500 hn        1 MOL      0.158644
     25 H9          2.9220   -6.5030   -0.1560 h1        1 MOL      0.077986
     26 H10         0.5090   -6.2340   -0.6250 hc        1 MOL      0.030299
     27 H11         0.7900   -5.0230   -1.7500 hc        1 MOL      0.030299
     28 H12         1.3490   -6.6350   -2.0600 hc        1 MOL      0.030299
     29 N3          3.8670   -3.8530   -1.9840 n         1 MOL     -0.190230
     30 C10         4.7210   -3.2610   -3.0660 c3        1 MOL      0.046664
     31 C11         6.0060   -2.6660   -2.5370 c         1 MOL      0.362239
     32 O6          7.0090   -2.5060   -3.2300 o         1 MOL     -0.531099
     33 C12         3.8340   -2.3300   -3.9890 c3        1 MOL     -0.291545
     34 C13         3.1150   -1.3260   -3.0970 c         1 MOL      0.713920
     35 O7          3.7310   -0.7650   -2.1370 o         1 MOL     -0.673410
     36 O8          1.9680   -0.9730   -3.3440 o         1 MOL     -0.673410
     37 H13         3.2940   -3.1340   -1.5530 hn        1 MOL      0.192891
     38 H14         5.0390   -4.0890   -3.6880 h1        1 MOL      0.079260
     39 H15         3.0200   -2.9280   -4.3920 hc        1 MOL      0.079035
     40 H16         4.4700   -1.8370   -4.7270 hc        1 MOL      0.079035
     41 N4          6.0540   -2.2210   -1.2570 n         1 MOL     -0.098294
     42 C14         7.1980   -1.4300   -0.7290 c3        1 MOL     -0.206380
     43 C15         7.3370    0.0330   -1.3420 c         1 MOL      0.462403
     44 O9          8.4860    0.5270   -1.5250 o         1 MOL     -0.583105
     45 H17         5.1930   -2.3320   -0.7490 hn        1 MOL      0.004819
     46 H18         8.0770   -2.0330   -0.9360 h1        1 MOL      0.112271
     47 H19         7.0620   -1.2970    0.3430 h1        1 MOL      0.112271
     48 N5          6.2100    0.6460   -1.7460 n         1 MOL     -0.214884
     49 C16         6.1830    2.0180   -2.3120 c3        1 MOL      0.039473
     50 C17         6.2530    3.1720   -1.3020 c         1 MOL      0.382738
     51 O10         6.2950    4.3260   -1.7210 o         1 MOL     -0.546030
     52 C18         4.9930    2.1610   -3.2820 c3        1 MOL     -0.329498
     53 C19         3.5980    2.2720   -2.6360 c         1 MOL      0.840350
     54 N6          2.4940    2.4390   -3.2600 n         1 MOL     -0.788236
     55 O11         3.4050    2.1470   -1.4470 o         1 MOL     -0.636496
     56 H20         5.3240    0.1770   -1.6680 hn        1 MOL      0.282710
     57 H21         7.0990    2.1530   -2.8760 h1        1 MOL      0.102903
     58 H22         4.9230    1.2250   -3.8450 hc        1 MOL      0.086501
     59 H23         5.1850    3.1050   -3.7930 hc        1 MOL      0.086501
     60 H24         2.3540    2.2380   -4.2380 hn        1 MOL      0.341871
     61 H25         1.6540    2.3140   -2.7190 hn        1 MOL      0.341871
     62 N7          6.1290    2.9610   -0.0260 n         1 MOL     -0.211058
     63 C20         6.2840    3.9800    1.0740 c3        1 MOL     -0.188978
     64 C21         4.9680    4.5890    1.6460 c         1 MOL      0.477614
     65 O12         5.0760    5.5210    2.4480 o         1 MOL     -0.611649
     66 H26         5.9140    2.0240    0.2630 hn        1 MOL      0.195994
     67 H27         6.8560    4.8140    0.6730 h1        1 MOL      0.119146
     68 H28         6.8770    3.4800    1.8400 h1        1 MOL      0.119146
     69 N8          3.8170    4.2870    1.2170 n         1 MOL     -0.140992
     70 C22         2.4860    4.7500    1.5590 c3        1 MOL     -0.045819
     71 C23         1.5540    3.5420    1.6450 c         1 MOL      0.421052
     72 O13         1.7630    2.4780    1.0270 o         1 MOL     -0.563933
     73 C24         1.8180    5.7460    0.4720 c3        1 MOL      0.445279
     74 C25         2.3890    7.0930    0.3250 c3        1 MOL     -0.242698
     75 O14         1.8760    5.2770   -0.8670 oh        1 MOL     -0.602007
     76 H29         3.7550    3.5730    0.5070 hn        1 MOL      0.214168
     77 H30         2.5670    5.2410    2.5270 h1        1 MOL      0.064251
     78 H31         0.7850    5.8770    0.8150 h1        1 MOL     -0.033304
     79 H32         1.1470    4.6740   -0.9880 ho        1 MOL      0.382755
     80 H33         1.9870    7.7070   -0.4790 hc        1 MOL      0.055340
     81 H34         2.0830    7.5820    1.2510 hc        1 MOL      0.055340
     82 H35         3.4740    7.1980    0.3290 hc        1 MOL      0.055340
     83 N9          0.4520    3.5880    2.3880 n         1 MOL     -0.396366
     84 C26        -0.7270    2.6540    2.2720 c3        1 MOL     -0.006857
     85 C27        -1.6910    2.8330    1.0800 c         1 MOL      0.546079
     86 O15        -1.9970    4.0260    0.7420 o         1 MOL     -0.598287
     87 C28        -1.6200    2.8050    3.5390 c3        1 MOL      0.203723
     88 C29        -0.8150    2.3870    4.8000 c3        1 MOL      0.209614
     89 C30        -2.9380    1.9900    3.5100 c3        1 MOL     -0.413442
     90 C31        -1.5180    2.5240    6.1880 c3        1 MOL     -0.403053
     91 H36         0.2730    4.4760    2.8330 hn        1 MOL      0.246521
     92 H37        -0.3670    1.6320    2.2470 h1        1 MOL      0.028570
     93 H38        -1.7920    3.8710    3.6760 hc        1 MOL     -0.039243
     94 H39         0.1270    2.9240    4.8270 hc        1 MOL     -0.056574
     95 H40        -0.5230    1.3710    4.5560 hc        1 MOL     -0.056574
     96 H41        -2.7450    0.9750    3.1650 hc        1 MOL      0.089443
     97 H42        -3.4560    1.8870    4.4600 hc        1 MOL      0.089443
     98 H43        -3.5780    2.5520    2.8360 hc        1 MOL      0.089443
     99 H44        -2.0130    3.4770    6.3370 hc        1 MOL      0.097588
    100 H45        -2.3330    1.8040    6.2650 hc        1 MOL      0.097588
    101 H46        -0.7330    2.2340    6.8920 hc        1 MOL      0.097588
    102 N10        -2.1360    1.7290    0.4350 n         1 MOL     -0.211490
    103 C32        -3.0310    1.8480   -0.7740 c3        1 MOL     -0.084560
    104 C33        -4.4070    1.3510   -0.5490 c         1 MOL      0.524310
    105 O16        -4.6020    0.5640    0.4040 o         1 MOL     -0.504645
    106 C34        -2.2440    1.1440   -1.9170 c3        1 MOL     -0.136440
    107 C35        -0.7750    1.7170   -2.1970 c         1 MOL      0.593855
    108 O17         0.1960    1.4360   -1.4200 o         1 MOL     -0.620437
    109 O18        -0.6640    2.1640   -3.3770 o         1 MOL     -0.620437
    110 H47        -1.7780    0.8020    0.6410 hn        1 MOL      0.282359
    111 H48        -3.2270    2.8650   -1.0940 h1        1 MOL      0.069902
    112 H49        -2.8210    1.2070   -2.8400 hc        1 MOL      0.037698
    113 H50        -2.1780    0.0830   -1.7160 hc        1 MOL      0.037698
    114 N11        -5.3520    1.6930   -1.4000 n         1 MOL     -0.481434
    115 C36        -6.7900    1.3090   -1.2850 c3        1 MOL      0.259201
    116 C37        -7.1050   -0.1440   -0.8970 c         1 MOL      0.342193
    117 O19        -7.9160   -0.3400    0.0430 o         1 MOL     -0.501406
    118 C38        -7.4650    1.8080   -2.5860 c3        1 MOL     -0.283272
    119 C39        -8.9550    1.6900   -2.6400 ca        1 MOL      0.093794
    120 C40        -9.7480    2.6090   -1.9580 ca        1 MOL     -0.096806
    121 C41        -9.6190    0.6510   -3.3270 ca        1 MOL     -0.096806
    122 C42       -11.1660    2.5040   -1.8050 ca        1 MOL     -0.211368
    123 C43       -11.0280    0.6510   -3.4920 ca        1 MOL     -0.211368
    124 C44       -11.7900    1.4920   -2.6650 ca        1 MOL     -0.019982
    125 H51        -5.0870    2.4400   -2.0290 hn        1 MOL      0.305206
    126 H52        -7.1390    1.9060   -0.4370 h1        1 MOL      0.048328
    127 H53        -7.0530    1.1620   -3.3660 hc        1 MOL      0.092135
    128 H54        -7.1770    2.8460   -2.6890 hc        1 MOL      0.092135
    129 H55        -9.1660    3.3400   -1.4120 ha        1 MOL      0.100890
    130 H56        -9.0510   -0.1290   -3.8300 ha        1 MOL      0.100890
    131 H57       -11.7740    3.0940   -1.1400 ha        1 MOL      0.145288
    132 H58       -11.4570   -0.2080   -3.9850 ha        1 MOL      0.145288
    133 H59       -12.8710    1.4610   -2.7210 ha        1 MOL      0.078578
    134 N12        -6.4230   -1.1480   -1.5070 n         1 MOL     -0.056422
    135 C45        -6.5760   -2.5330   -1.0540 c3        1 MOL     -0.071596
    136 C46        -5.7270   -2.9210    0.2010 c         1 MOL      0.338906
    137 O20        -6.0920   -3.8100    0.9910 o         1 MOL     -0.524273
    138 C47        -6.0630   -3.4470   -2.1730 c3        1 MOL     -0.227562
    139 C48        -4.9420   -2.5810   -2.7050 c3        1 MOL      0.332322
    140 C49        -5.3210   -1.1410   -2.5110 c3        1 MOL     -0.316272
    141 H60        -7.6260   -2.7260   -0.8430 h1        1 MOL      0.105140
    142 H61        -5.6060   -4.3980   -1.8860 hc        1 MOL      0.081007
    143 H62        -6.7120   -3.5410   -3.0430 hc        1 MOL      0.081007
    144 H63        -4.0760   -2.8830   -2.1060 hc        1 MOL     -0.060158
    145 H64        -4.7500   -2.7900   -3.7630 hc        1 MOL     -0.060158
    146 H65        -4.4450   -0.5260   -2.2810 h1        1 MOL      0.101667
    147 H66        -5.7870   -0.7900   -3.4320 h1        1 MOL      0.101667
    148 N13        -4.6850   -2.1970    0.5040 n         1 MOL      0.097266
    149 C50        -3.8470   -2.3640    1.6810 c3        1 MOL     -0.441316
    150 C51        -4.5580   -1.7820    2.9300 c         1 MOL      0.561681
    151 O21        -4.5770   -2.2770    4.0370 o         1 MOL     -0.557987
    152 C52        -2.4360   -1.8020    1.6080 c3        1 MOL      0.170577
    153 C53        -1.6630   -2.2620    0.4150 c3        1 MOL     -0.169894
    154 C54        -0.2830   -1.6140    0.3180 c         1 MOL      0.359335
    155 O22         0.0720   -0.6290    1.0700 o         1 MOL     -0.611352
    156 O23         0.5480   -2.0650   -0.5620 o         1 MOL     -0.611352
    157 H67        -4.7350   -1.2310    0.2120 hn        1 MOL      0.183453
    158 H68        -3.7890   -3.4350    1.8800 h1        1 MOL      0.172038
    159 H69        -1.9110   -2.1040    2.5060 hc        1 MOL      0.016828
    160 H70        -2.5110   -0.7210    1.6220 hc        1 MOL      0.016828
    161 H71        -2.1990   -1.8850   -0.4520 hc        1 MOL      0.094745
    162 H72        -1.4910   -3.3330    0.3790 hc        1 MOL      0.094745
    163 N14        -5.3360   -0.6940    2.7670 n         1 MOL     -0.111031
    164 C55        -6.1260   -0.0980    3.8680 c3        1 MOL     -0.281000
    165 H73        -7.0710   -0.6320    3.9660 h1        1 MOL      0.102442
    166 H74        -5.5680   -0.1750    4.8000 h1        1 MOL      0.102442
    167 H75        -6.3230    0.9510    3.6480 h1        1 MOL      0.102442
    168 H76        -5.5000   -0.4280    1.8060 hn        1 MOL      0.131198
    169 Ca1         2.1140    0.0910   -0.2960 Ca        1 MOL      1.656095
    170 O24         4.3860    0.9460    1.0470 oh        1 MOL     -0.727059
    171 H77         3.9880    1.3850    1.7940 ho        1 MOL      0.346657
    172 H78         4.7420    0.1330    1.4030 ho        1 MOL      0.346657
    173 O25         2.0590   -0.0570    2.5520 oh        1 MOL     -0.727059
    174 H79         2.2180   -0.4500    3.4060 ho        1 MOL      0.346657
    175 H80         1.1200   -0.1680    2.3940 ho        1 MOL      0.346657
@<TRIPOS>BOND
     1    1    2 1   
     2    1    4 1   
     3    1    5 1   
     4    1    6 1   
     5    2    3 2   
     6    2    7 1   
     7    7    8 1   
     8    7   15 1   
     9    8    9 1   
    10    8   11 1   
    11    8   16 1   
    12    9   10 2   
    13    9   19 1   
    14   11   12 1   
    15   11   17 1   
    16   11   18 1   
    17   12   13 1   
    18   12   14 1   
    19   19   20 1   
    20   19   24 1   
    21   20   21 1   
    22   20   23 1   
    23   20   25 1   
    24   21   22 2   
    25   21   29 1   
    26   23   26 1   
    27   23   27 1   
    28   23   28 1   
    29   29   30 1   
    30   29   37 1   
    31   30   31 1   
    32   30   33 1   
    33   30   38 1   
    34   31   32 2   
    35   31   41 1   
    36   33   34 1   
    37   33   39 1   
    38   33   40 1   
    39   34   35 1   
    40   34   36 1   
    41   41   42 1   
    42   41   45 1   
    43   42   43 1   
    44   42   46 1   
    45   42   47 1   
    46   43   44 2   
    47   43   48 1   
    48   48   49 1   
    49   48   56 1   
    50   49   50 1   
    51   49   52 1   
    52   49   57 1   
    53   50   51 2   
    54   50   62 1   
    55   52   53 1   
    56   52   58 1   
    57   52   59 1   
    58   53   54 1   
    59   53   55 2   
    60   54   60 1   
    61   54   61 1   
    62   62   63 1   
    63   62   66 1   
    64   63   64 1   
    65   63   67 1   
    66   63   68 1   
    67   64   65 2   
    68   64   69 1   
    69   69   70 1   
    70   69   76 1   
    71   70   71 1   
    72   70   73 1   
    73   70   77 1   
    74   71   72 2   
    75   71   83 1   
    76   73   74 1   
    77   73   75 1   
    78   73   78 1   
    79   74   80 1   
    80   74   81 1   
    81   74   82 1   
    82   75   79 1   
    83   83   84 1   
    84   83   91 1   
    85   84   85 1   
    86   84   87 1   
    87   84   92 1   
    88   85   86 2   
    89   85  102 1   
    90   87   88 1   
    91   87   89 1   
    92   87   93 1   
    93   88   90 1   
    94   88   94 1   
    95   88   95 1   
    96   89   96 1   
    97   89   97 1   
    98   89   98 1   
    99   90   99 1   
   100   90  100 1   
   101   90  101 1   
   102  102  103 1   
   103  102  110 1   
   104  103  104 1   
   105  103  106 1   
   106  103  111 1   
   107  104  105 2   
   108  104  114 1   
   109  106  107 1   
   110  106  112 1   
   111  106  113 1   
   112  107  108 1   
   113  107  109 1   
   114  114  115 1   
   115  114  125 1   
   116  115  116 1   
   117  115  118 1   
   118  115  126 1   
   119  116  117 2   
   120  116  134 1   
   121  118  119 1   
   122  118  127 1   
   123  118  128 1   
   124  119  120 ar  
   125  119  121 ar  
   126  120  122 ar  
   127  120  129 1   
   128  121  123 ar  
   129  121  130 1   
   130  122  124 ar  
   131  122  131 1   
   132  123  124 ar  
   133  123  132 1   
   134  124  133 1   
   135  134  135 1   
   136  134  140 1   
   137  135  136 1   
   138  135  138 1   
   139  135  141 1   
   140  136  137 2   
   141  136  148 1   
   142  138  139 1   
   143  138  142 1   
   144  138  143 1   
   145  139  140 1   
   146  139  144 1   
   147  139  145 1   
   148  140  146 1   
   149  140  147 1   
   150  148  149 1   
   151  148  157 1   
   152  149  150 1   
   153  149  152 1   
   154  149  158 1   
   155  150  151 2   
   156  150  163 1   
   157  152  153 1   
   158  152  159 1   
   159  152  160 1   
   160  153  154 1   
   161  153  161 1   
   162  153  162 1   
   163  154  155 1   
   164  154  156 1   
   165  163  164 1   
   166  163  168 1   
   167  164  165 1   
   168  164  166 1   
   169  164  167 1   
   170  170  171 1   
   171  170  172 1   
   172  173  174 1   
   173  173  175 1   
@<TRIPOS>SUBSTRUCTURE
     1 MOL         1 TEMP              0 ****  ****    0 ROOT
