@<TRIPOS>MOLECULE
MOL
  189   185     1     0     0
SMALL
resp


@<TRIPOS>ATOM
      1 C1          0.2830   -3.6340    6.1850 c3        1 MOL     -0.387120
      2 C2          0.8250   -3.1690    4.8320 c         1 MOL      0.755871
      3 O1          0.9120   -1.9820    4.5500 o         1 MOL     -0.611326
      4 H1         -0.6850   -4.1150    6.0410 hc        1 MOL      0.099082
      5 H2          0.9780   -4.3450    6.6310 hc        1 MOL      0.099082
      6 H3          0.1670   -2.7740    6.8450 hc        1 MOL      0.099082
      7 N1          1.2810   -4.1030    3.9570 n         1 MOL     -0.627917
      8 C3          1.9810   -3.8140    2.7410 c3        1 MOL      0.343604
      9 C4          1.9760   -5.0300    1.7680 c         1 MOL      0.304512
     10 O2          2.3390   -6.1650    2.1350 o         1 MOL     -0.547558
     11 C5          3.4030   -3.4090    3.0480 c3        1 MOL     -0.309695
     12 C6          4.2220   -3.1630    1.7420 c         1 MOL      0.723936
     13 O3          5.4070   -3.5930    1.6670 o         1 MOL     -0.679675
     14 O4          3.7060   -2.4470    0.8630 o         1 MOL     -0.679675
     15 H4          1.1820   -5.0760    4.2000 hn        1 MOL      0.297816
     16 H5          1.4490   -2.9630    2.3100 h1        1 MOL      0.005507
     17 H6          3.8520   -4.2190    3.6220 hc        1 MOL      0.052447
     18 H7          3.3840   -2.5060    3.6650 hc        1 MOL      0.052447
     19 N2          1.6590   -4.7110    0.5200 n         1 MOL      0.011588
     20 C7          1.7370   -5.6580   -0.5780 c3        1 MOL     -0.012708
     21 C8          2.7420   -5.4190   -1.7660 c         1 MOL      0.458996
     22 O5          2.6780   -6.1100   -2.7260 o         1 MOL     -0.528051
     23 C9          0.3050   -5.9000   -1.1460 c3        1 MOL      0.295001
     24 C10        -0.3150   -4.6940   -1.8830 c3        1 MOL      0.143282
     25 C11        -0.6570   -6.4190   -0.0500 c3        1 MOL     -0.407007
     26 C12        -1.4600   -5.0990   -2.8480 c3        1 MOL     -0.367012
     27 H8          1.2640   -3.7950    0.3640 hn        1 MOL     -0.002990
     28 H9          2.0830   -6.5870   -0.1260 h1        1 MOL      0.037916
     29 H10         0.4590   -6.6900   -1.8820 hc        1 MOL     -0.083685
     30 H11         0.3980   -4.1780   -2.5170 hc        1 MOL      0.013783
     31 H12        -0.7100   -3.9900   -1.1460 hc        1 MOL      0.013783
     32 H13        -0.7410   -5.6380    0.7080 hc        1 MOL      0.078552
     33 H14        -1.6660   -6.6600   -0.3750 hc        1 MOL      0.078552
     34 H15        -0.1960   -7.3450    0.2880 hc        1 MOL      0.078552
     35 H16        -2.3260   -5.4840   -2.3250 hc        1 MOL      0.090144
     36 H17        -1.6130   -4.1850   -3.4240 hc        1 MOL      0.090144
     37 H18        -1.0000   -5.7730   -3.5660 hc        1 MOL      0.090144
     38 N3          3.5450   -4.3160   -1.6070 n         1 MOL     -0.433138
     39 C13         4.3800   -3.8760   -2.7450 c3        1 MOL      0.042510
     40 C14         5.6900   -3.1430   -2.3800 c         1 MOL      0.378628
     41 O6          6.4730   -2.8320   -3.2680 o         1 MOL     -0.536974
     42 C15         3.4590   -3.0720   -3.7750 c3        1 MOL     -0.208970
     43 C16         2.5840   -1.9590   -3.1710 c         1 MOL      0.807377
     44 O7          2.7510   -1.5940   -2.0290 o         1 MOL     -0.735456
     45 O8          1.7810   -1.3710   -3.9220 o         1 MOL     -0.735456
     46 H19         3.5390   -3.7830   -0.7510 hn        1 MOL      0.280785
     47 H20         4.8410   -4.6990   -3.2830 h1        1 MOL      0.078158
     48 H21         2.7300   -3.6890   -4.3160 hc        1 MOL      0.044848
     49 H22         4.1390   -2.6590   -4.5130 hc        1 MOL      0.044848
     50 N4          5.8790   -2.7600   -1.1170 n         1 MOL     -0.033271
     51 C17         7.2030   -2.3960   -0.6980 c3        1 MOL      0.011679
     52 C18         7.5880   -0.9370   -1.2360 c         1 MOL      0.279445
     53 O9          8.7500   -0.6250   -1.4620 o         1 MOL     -0.557668
     54 H23         5.2110   -3.1470   -0.4700 hn        1 MOL      0.077858
     55 H24         7.9560   -3.1370   -0.9810 h1        1 MOL      0.044642
     56 H25         7.2300   -2.3490    0.3860 h1        1 MOL      0.044642
     57 N5          6.6150   -0.0670   -1.5310 n         1 MOL      0.036925
     58 C19         6.8150    1.1760   -2.2500 c3        1 MOL     -0.066137
     59 C20         7.0630    2.3800   -1.3160 c         1 MOL      0.426692
     60 O10         7.4470    3.5020   -1.8110 o         1 MOL     -0.540137
     61 C21         5.5510    1.4030   -3.2250 c3        1 MOL     -0.271851
     62 C22         4.1990    1.4720   -2.5490 c         1 MOL      0.767480
     63 O11         4.0020    1.0340   -1.3930 o         1 MOL     -0.700510
     64 O12         3.2100    1.9410   -3.2090 o         1 MOL     -0.700510
     65 H26         5.6660   -0.3940   -1.4190 hn        1 MOL      0.090567
     66 H27         7.7730    1.1620   -2.7780 h1        1 MOL      0.111076
     67 H28         5.6160    0.6120   -3.9730 hc        1 MOL      0.088841
     68 H29         5.7090    2.2810   -3.8600 hc        1 MOL      0.088841
     69 N6          6.9090    2.1470    0.0130 n         1 MOL     -0.342684
     70 C23         7.2020    3.1720    1.0360 c3        1 MOL     -0.108698
     71 C24         6.0630    4.1220    1.4210 c         1 MOL      0.433396
     72 O13         6.2130    5.1050    2.1250 o         1 MOL     -0.557174
     73 H30         6.5730    1.2420    0.3150 hn        1 MOL      0.256663
     74 H31         8.1220    3.7020    0.7920 h1        1 MOL      0.098151
     75 H32         7.5020    2.6440    1.9490 h1        1 MOL      0.098151
     76 N7          4.8970    3.9200    0.7580 n         1 MOL     -0.150101
     77 C25         3.6150    4.6040    1.0990 c3        1 MOL      0.065307
     78 C26         2.5940    3.5470    1.5010 c         1 MOL      0.480460
     79 O14         2.7320    2.4180    1.0570 o         1 MOL     -0.468940
     80 C27         3.0700    5.3640   -0.1430 c3        1 MOL      0.122065
     81 C28         3.9460    6.4210   -0.8070 c3        1 MOL     -0.546569
     82 C29         3.1630    7.4590   -1.6640 c         1 MOL      0.793668
     83 N8          2.5970    7.0280   -2.7650 n         1 MOL     -0.824325
     84 O15         3.1000    8.6530   -1.3950 o         1 MOL     -0.609360
     85 H33         4.7360    3.0190    0.3390 hn        1 MOL      0.124996
     86 H34         3.6260    5.2440    1.9820 h1        1 MOL      0.040815
     87 H35         2.1690    5.9130    0.1360 hc        1 MOL      0.010584
     88 H36         2.6820    4.6460   -0.8720 hc        1 MOL      0.010584
     89 H37         4.6710    5.9820   -1.4950 hc        1 MOL      0.157666
     90 H38         4.5870    6.8470   -0.0280 hc        1 MOL      0.157666
     91 H39         2.5470    6.0240   -2.9000 hn        1 MOL      0.372200
     92 H40         2.2820    7.6570   -3.4830 hn        1 MOL      0.372200
     93 N9          1.5050    3.9680    2.2280 n         1 MOL     -0.670028
     94 C30         0.2800    3.1800    2.3680 c3        1 MOL      0.146661
     95 C31        -0.8370    3.5740    1.4000 c         1 MOL      0.570870
     96 O16        -1.0520    4.7440    1.2120 o         1 MOL     -0.623123
     97 C32        -0.2090    2.9670    3.8310 c3        1 MOL      0.317569
     98 C33        -0.2630    4.2580    4.6210 c3        1 MOL     -0.262457
     99 C34        -1.5670    2.3620    3.9310 c3        1 MOL     -0.262457
    100 H41         1.4460    4.9720    2.2830 hn        1 MOL      0.341635
    101 H42         0.4050    2.1570    2.0280 h1        1 MOL      0.046423
    102 H43         0.4700    2.3690    4.4340 hc        1 MOL     -0.021440
    103 H44        -1.0640    4.9280    4.3010 hc        1 MOL      0.042330
    104 H45        -0.3610    3.9860    5.6670 hc        1 MOL      0.042330
    105 H46         0.6600    4.8230    4.6560 hc        1 MOL      0.042330
    106 H47        -1.9920    2.2240    4.9260 hc        1 MOL      0.042330
    107 H48        -2.2300    3.0500    3.3980 hc        1 MOL      0.042330
    108 H49        -1.5740    1.4630    3.3250 hc        1 MOL      0.042330
    109 N10        -1.4980    2.6080    0.8300 n         1 MOL     -0.114894
    110 C35        -2.6250    2.7700   -0.0930 c3        1 MOL      0.006688
    111 C36        -3.9390    2.3210    0.5730 c         1 MOL      0.146323
    112 O17        -3.9160    1.3600    1.2440 o         1 MOL     -0.075308
    113 C37        -2.1320    2.0350   -1.3680 c3        1 MOL     -0.295675
    114 C38        -3.1830    1.9650   -2.4100 c         1 MOL      0.888697
    115 N11        -3.3700    2.9360   -3.2210 n         1 MOL     -0.924497
    116 O18        -3.8450    0.9060   -2.4840 o         1 MOL     -0.620432
    117 H50        -1.1620    1.6560    0.8520 hn        1 MOL      0.060795
    118 H51        -2.7620    3.7960   -0.4200 h1        1 MOL      0.048297
    119 H52        -1.8140    1.0170   -1.1070 hc        1 MOL      0.096451
    120 H53        -1.2260    2.4740   -1.8080 hc        1 MOL      0.096451
    121 H54        -2.8470    3.7990   -3.1470 hn        1 MOL      0.393295
    122 H55        -3.8310    2.7370   -4.0970 hn        1 MOL      0.393295
    123 N12        -5.0890    2.9330    0.2650 n         1 MOL     -0.257668
    124 C39        -6.4280    2.7120    0.8200 c3        1 MOL      0.016939
    125 C40        -6.8650    1.2480    0.9690 c         1 MOL      0.500837
    126 O19        -7.7270    1.0130    1.7910 o         1 MOL     -0.588182
    127 C41        -7.4150    3.5990    0.0350 c3        1 MOL     -0.313666
    128 C42        -7.8470    3.0530   -1.2850 ca        1 MOL      0.014216
    129 C43        -9.0880    2.3530   -1.3600 ca        1 MOL     -0.201312
    130 C44        -6.9670    3.0770   -2.4120 ca        1 MOL     -0.201312
    131 C45        -9.4220    1.6750   -2.5500 ca        1 MOL     -0.238385
    132 C46        -7.2790    2.3900   -3.5460 ca        1 MOL     -0.238385
    133 C47        -8.4100    1.5830   -3.5840 ca        1 MOL      0.350800
    134 O20        -8.6400    0.8470   -4.6890 oh        1 MOL     -0.505954
    135 H56        -4.9910    3.7440   -0.3270 hn        1 MOL      0.213475
    136 H57        -6.4120    3.1060    1.8450 h1        1 MOL      0.062437
    137 H58        -7.0790    4.6450    0.0280 hc        1 MOL      0.121525
    138 H59        -8.3340    3.6910    0.6170 hc        1 MOL      0.121525
    139 H60        -9.6720    2.2490   -0.4610 ha        1 MOL      0.150931
    140 H61        -6.0320    3.6130   -2.3210 ha        1 MOL      0.150931
    141 H62       -10.3550    1.1380   -2.6160 ha        1 MOL      0.149051
    142 H63        -6.5090    2.3390   -4.2990 ha        1 MOL      0.149051
    143 H64        -9.3650    0.2130   -4.6520 ho        1 MOL      0.383861
    144 N13        -6.4120    0.3420    0.1360 n         1 MOL     -0.056693
    145 C48        -6.7190   -1.0940    0.1050 c3        1 MOL     -0.019468
    146 C49        -5.7920   -1.8960    0.9990 c         1 MOL      0.314278
    147 O21        -6.1970   -2.9980    1.5120 o         1 MOL     -0.525256
    148 C50        -6.8720   -1.5600   -1.3830 c3        1 MOL      0.094962
    149 C51        -7.7700   -2.7690   -1.5180 c3        1 MOL     -0.295996
    150 C52        -7.8990   -3.3640   -2.8330 c         1 MOL      0.762665
    151 O22        -7.1460   -4.2340   -3.2100 o         1 MOL     -0.757231
    152 O23        -8.9200   -2.9800   -3.5100 o         1 MOL     -0.757231
    153 H65        -5.9720    0.7200   -0.6910 hn        1 MOL      0.142294
    154 H66        -7.6820   -1.2190    0.5920 h1        1 MOL      0.098542
    155 H67        -5.9090   -1.6110   -1.9080 hc        1 MOL      0.026993
    156 H68        -7.4650   -0.7240   -1.7340 hc        1 MOL      0.026993
    157 H69        -8.7120   -2.5600   -1.0060 hc        1 MOL      0.041920
    158 H70        -7.2960   -3.5150   -0.9010 hc        1 MOL      0.041920
    159 N14        -4.6610   -1.2870    1.4330 n         1 MOL     -0.139751
    160 C53        -3.7710   -1.7890    2.5210 c3        1 MOL     -0.074171
    161 C54        -4.1590   -1.1100    3.8470 c         1 MOL      0.490786
    162 O24        -3.9820   -1.7010    4.9110 o         1 MOL     -0.551548
    163 C55        -2.2830   -1.5350    2.2270 c3        1 MOL      0.117179
    164 C56        -1.8840   -1.7130    0.7570 c3        1 MOL     -0.253291
    165 C57        -0.4630   -1.3110    0.6100 c         1 MOL      0.954768
    166 O25         0.3560   -1.9830   -0.0030 o         1 MOL     -0.773086
    167 O26        -0.1070   -0.1610    0.9220 o         1 MOL     -0.773086
    168 H71        -4.3270   -0.4960    0.9010 hn        1 MOL      0.089595
    169 H72        -3.9440   -2.8540    2.6880 h1        1 MOL      0.097102
    170 H73        -1.5860   -2.1330    2.8150 hc        1 MOL     -0.022583
    171 H74        -2.1680   -0.4670    2.4250 hc        1 MOL     -0.022583
    172 H75        -2.5470   -1.1660    0.0800 hc        1 MOL      0.068894
    173 H76        -1.9480   -2.7640    0.5090 hc        1 MOL      0.068894
    174 N15        -4.7360    0.1110    3.7180 n         1 MOL     -0.218533
    175 C58        -5.1310    0.8460    4.9510 c3        1 MOL     -0.091914
    176 H77        -5.1170    0.1630    5.8010 h1        1 MOL      0.055538
    177 H78        -4.4300    1.6610    5.1300 h1        1 MOL      0.055538
    178 H79        -6.1360    1.2510    4.8270 h1        1 MOL      0.055538
    179 H80        -4.7840    0.6120    2.8470 hn        1 MOL      0.079457
    180 Ca1         2.4100   -0.1970    0.1860 Ca        1 MOL      1.759829
    181 O27         2.1990   -0.0590    2.8220 oh        1 MOL     -0.877605
    182 H81         1.7150   -0.5200    3.5090 ho        1 MOL      0.410304
    183 H82         2.9130    0.3680    3.2910 ho        1 MOL      0.410304
    184 O28         1.1130    0.9830   -1.7460 oh        1 MOL     -0.877605
    185 H83         0.9040    0.4260   -2.5000 ho        1 MOL      0.410304
    186 H84         1.8410    1.5300   -2.0500 ho        1 MOL      0.410304
    187 O29         4.7690    0.4650    1.4240 oh        1 MOL     -0.877605
    188 H85         4.5300    0.9980    2.1820 ho        1 MOL      0.410304
    189 H86         5.5520   -0.0170    1.7180 ho        1 MOL      0.410304
@<TRIPOS>BOND
     1    1    2 1   
     2    1    4 1   
     3    1    5 1   
     4    1    6 1   
     5    2    3 2   
     6    2    7 1   
     7    7    8 1   
     8    7   15 1   
     9    8    9 1   
    10    8   11 1   
    11    8   16 1   
    12    9   10 2   
    13    9   19 1   
    14   11   12 1   
    15   11   17 1   
    16   11   18 1   
    17   12   13 1   
    18   12   14 1   
    19   19   20 1   
    20   19   27 1   
    21   20   21 1   
    22   20   23 1   
    23   20   28 1   
    24   21   22 2   
    25   21   38 1   
    26   23   24 1   
    27   23   25 1   
    28   23   29 1   
    29   24   26 1   
    30   24   30 1   
    31   24   31 1   
    32   25   32 1   
    33   25   33 1   
    34   25   34 1   
    35   26   35 1   
    36   26   36 1   
    37   26   37 1   
    38   38   39 1   
    39   38   46 1   
    40   39   40 1   
    41   39   42 1   
    42   39   47 1   
    43   40   41 2   
    44   40   50 1   
    45   42   43 1   
    46   42   48 1   
    47   42   49 1   
    48   43   44 1   
    49   43   45 1   
    50   50   51 1   
    51   50   54 1   
    52   51   52 1   
    53   51   55 1   
    54   51   56 1   
    55   52   53 2   
    56   52   57 1   
    57   57   58 1   
    58   57   65 1   
    59   58   59 1   
    60   58   61 1   
    61   58   66 1   
    62   59   60 2   
    63   59   69 1   
    64   61   62 1   
    65   61   67 1   
    66   61   68 1   
    67   62   63 1   
    68   62   64 1   
    69   69   70 1   
    70   69   73 1   
    71   70   71 1   
    72   70   74 1   
    73   70   75 1   
    74   71   72 2   
    75   71   76 1   
    76   76   77 1   
    77   76   85 1   
    78   77   78 1   
    79   77   80 1   
    80   77   86 1   
    81   78   79 2   
    82   78   93 1   
    83   80   81 1   
    84   80   87 1   
    85   80   88 1   
    86   81   82 1   
    87   81   89 1   
    88   81   90 1   
    89   82   83 1   
    90   82   84 2   
    91   83   91 1   
    92   83   92 1   
    93   93   94 1   
    94   93  100 1   
    95   94   95 1   
    96   94   97 1   
    97   94  101 1   
    98   95   96 2   
    99   95  109 1   
   100   97   98 1   
   101   97   99 1   
   102   97  102 1   
   103   98  103 1   
   104   98  104 1   
   105   98  105 1   
   106   99  106 1   
   107   99  107 1   
   108   99  108 1   
   109  109  110 1   
   110  109  117 1   
   111  110  111 1   
   112  110  113 1   
   113  110  118 1   
   114  111  112 2   
   115  111  123 1   
   116  113  114 1   
   117  113  119 1   
   118  113  120 1   
   119  114  115 1   
   120  114  116 2   
   121  115  121 1   
   122  115  122 1   
   123  123  124 1   
   124  123  135 1   
   125  124  125 1   
   126  124  127 1   
   127  124  136 1   
   128  125  126 2   
   129  125  144 1   
   130  127  128 1   
   131  127  137 1   
   132  127  138 1   
   133  128  129 ar  
   134  128  130 ar  
   135  129  131 ar  
   136  129  139 1   
   137  130  132 ar  
   138  130  140 1   
   139  131  133 ar  
   140  131  141 1   
   141  132  133 ar  
   142  132  142 1   
   143  133  134 1   
   144  134  143 1   
   145  144  145 1   
   146  144  153 1   
   147  145  146 1   
   148  145  148 1   
   149  145  154 1   
   150  146  147 2   
   151  146  159 1   
   152  148  149 1   
   153  148  155 1   
   154  148  156 1   
   155  149  150 1   
   156  149  157 1   
   157  149  158 1   
   158  150  151 1   
   159  150  152 1   
   160  159  160 1   
   161  159  168 1   
   162  160  161 1   
   163  160  163 1   
   164  160  169 1   
   165  161  162 2   
   166  161  174 1   
   167  163  164 1   
   168  163  170 1   
   169  163  171 1   
   170  164  165 1   
   171  164  172 1   
   172  164  173 1   
   173  165  166 1   
   174  165  167 1   
   175  174  175 1   
   176  174  179 1   
   177  175  176 1   
   178  175  177 1   
   179  175  178 1   
   180  181  182 1   
   181  181  183 1   
   182  184  185 1   
   183  184  186 1   
   184  187  188 1   
   185  187  189 1   
@<TRIPOS>SUBSTRUCTURE
     1 MOL         1 TEMP              0 ****  ****    0 ROOT
