@<TRIPOS>MOLECULE
MOL
  176   174     1     0     0
SMALL
resp


@<TRIPOS>ATOM
      1 C1         -0.9540   -3.0030    6.3360 c3        1 MOL     -0.291377
      2 C2         -0.6770   -2.8110    4.8100 c         1 MOL      0.818035
      3 O1         -1.5680   -2.9080    4.0410 o         1 MOL     -0.618670
      4 H1         -2.0270   -2.9430    6.5190 hc        1 MOL      0.066612
      5 H2         -0.5860   -3.9790    6.6530 hc        1 MOL      0.066612
      6 H3         -0.4450   -2.2220    6.9000 hc        1 MOL      0.066612
      7 N1          0.5260   -2.7270    4.3730 n         1 MOL     -0.606649
      8 C3          0.8360   -2.4790    2.9420 c3        1 MOL     -0.042692
      9 C4          0.6200   -3.7870    2.1420 c         1 MOL      0.605197
     10 O2          1.0420   -4.9090    2.5970 o         1 MOL     -0.558468
     11 C5          2.2470   -1.8680    2.8530 c3        1 MOL     -0.320877
     12 C6          2.5940   -1.4450    1.3990 c         1 MOL      0.514019
     13 O3          2.4750   -2.2150    0.4280 o         1 MOL     -0.497299
     14 O4          2.7970   -0.2470    1.1350 o         1 MOL     -0.497299
     15 H4          1.2500   -2.9230    5.0610 hn        1 MOL      0.317531
     16 H5          0.1350   -1.7210    2.5870 h1        1 MOL      0.193554
     17 H6          2.9030   -2.6570    3.2250 hc        1 MOL      0.117466
     18 H7          2.3900   -1.0300    3.5410 hc        1 MOL      0.117466
     19 N2         -0.1140   -3.7570    0.9990 n         1 MOL     -0.163398
     20 C7         -0.4020   -4.9530    0.2470 c3        1 MOL     -0.405590
     21 C8          0.7110   -5.4470   -0.6490 c         1 MOL      0.669211
     22 O5          0.6670   -6.5790   -1.1750 o         1 MOL     -0.580573
     23 C9         -1.6560   -4.6830   -0.5830 c3        1 MOL      0.434339
     24 C10        -2.5140   -5.8570   -0.9750 c3        1 MOL     -0.277915
     25 C11        -3.8910   -5.6660   -1.5140 c3        1 MOL     -0.078366
     26 C12        -4.0180   -5.0360   -2.9020 c3        1 MOL      0.032659
     27 N3         -5.4400   -4.9930   -3.3740 n4        1 MOL     -0.349306
     28 H8         -0.5310   -2.8750    0.7100 hn        1 MOL      0.076476
     29 H9         -0.5250   -5.8240    0.8940 h1        1 MOL      0.154531
     30 H10        -1.3460   -4.2100   -1.5150 hc        1 MOL     -0.014226
     31 H11        -2.4580   -4.0790   -0.1400 hc        1 MOL     -0.014226
     32 H12        -2.6990   -6.4250   -0.0580 hc        1 MOL      0.070378
     33 H13        -1.9920   -6.5210   -1.6520 hc        1 MOL      0.070378
     34 H14        -4.3940   -5.1180   -0.7160 hc        1 MOL      0.071817
     35 H15        -4.5520   -6.5250   -1.4990 hc        1 MOL      0.071817
     36 H16        -3.5530   -5.6760   -3.6510 hx        1 MOL      0.091386
     37 H17        -3.5680   -4.0480   -2.9720 hx        1 MOL      0.091386
     38 H18        -5.6240   -4.5100   -4.2390 hn        1 MOL      0.319648
     39 H19        -5.8200   -5.9300   -3.4650 hn        1 MOL      0.319648
     40 H20        -5.9810   -4.4590   -2.7100 hn        1 MOL      0.319648
     41 N4          1.8140   -4.6910   -0.8750 n         1 MOL     -0.525466
     42 C13         2.9520   -4.9810   -1.8150 c3        1 MOL      0.081265
     43 C14         4.3730   -4.7370   -1.3180 c         1 MOL      0.432608
     44 O6          5.3350   -4.8830   -2.1320 o         1 MOL     -0.525627
     45 C15         2.6900   -4.2640   -3.1300 c3        1 MOL     -0.290682
     46 C16         2.3970   -2.7610   -2.8480 c         1 MOL      0.771271
     47 O7          1.1830   -2.3520   -2.8130 o         1 MOL     -0.744298
     48 O8          3.2710   -1.8880   -2.6550 o         1 MOL     -0.744298
     49 H21         1.7430   -3.7600   -0.4950 hn        1 MOL      0.310432
     50 H22         3.0450   -6.0380   -2.0330 h1        1 MOL      0.121437
     51 H23         1.8050   -4.6620   -3.6320 hc        1 MOL      0.084061
     52 H24         3.5550   -4.3400   -3.7910 hc        1 MOL      0.084061
     53 N5          4.5330   -4.4760   -0.0260 n         1 MOL     -0.315122
     54 C17         5.7560   -4.1410    0.6860 c3        1 MOL     -0.048039
     55 C18         6.3740   -2.7820    0.5120 c         1 MOL      0.425074
     56 O9          7.3900   -2.4770    1.1500 o         1 MOL     -0.554004
     57 H25         3.7060   -4.1760    0.4730 hn        1 MOL      0.200216
     58 H26         6.5480   -4.8210    0.3760 h1        1 MOL      0.090019
     59 H27         5.6130   -4.3520    1.7440 h1        1 MOL      0.090019
     60 N6          5.7750   -1.9000   -0.2670 n         1 MOL     -0.074129
     61 C19         6.4960   -0.6850   -0.6640 c3        1 MOL     -0.215958
     62 C20         6.5770    0.4990    0.3500 c         1 MOL      0.486881
     63 O10         7.4810    1.3120    0.2510 o         1 MOL     -0.508265
     64 C21         6.1600   -0.2260   -2.0680 c3        1 MOL     -0.077698
     65 C22         5.0920    0.8240   -1.9910 c         1 MOL      0.214799
     66 N7          5.2590    1.9370   -2.6870 n         1 MOL     -0.505630
     67 O11         4.0330    0.6580   -1.3960 o         1 MOL     -0.191992
     68 H28         4.8360   -1.9740   -0.6280 hn        1 MOL      0.138309
     69 H29         7.5370   -1.0210   -0.7610 h1        1 MOL      0.136912
     70 H30         5.8150   -1.0630   -2.6770 hc        1 MOL      0.095290
     71 H31         7.0600    0.0800   -2.5990 hc        1 MOL      0.095290
     72 H32         6.0980    2.1150   -3.2270 hn        1 MOL      0.304761
     73 H33         4.3900    2.4240   -2.8400 hn        1 MOL      0.304761
     74 N8          5.6670    0.5140    1.2930 n         1 MOL     -0.161950
     75 C23         5.5630    1.6170    2.2880 c3        1 MOL     -0.261980
     76 C24         4.7270    2.8140    1.8070 c         1 MOL      0.582712
     77 O12         4.9310    3.8530    2.3500 o         1 MOL     -0.554833
     78 H34         4.8300   -0.0150    1.1510 hn        1 MOL      0.139320
     79 H35         6.5480    1.9860    2.5940 h1        1 MOL      0.126131
     80 H36         4.9780    1.1590    3.0850 h1        1 MOL      0.126131
     81 N9          3.7350    2.5900    0.9330 n         1 MOL      0.060599
     82 C25         2.7290    3.5790    0.6080 c3        1 MOL      0.080532
     83 C26         1.3340    2.9210    0.6330 c         1 MOL      0.234826
     84 O13         1.1620    1.8750   -0.0440 o         1 MOL     -0.450910
     85 C27         2.8880    4.0950   -0.8210 c3        1 MOL      0.227564
     86 C28         4.0060    5.1420   -0.7970 ca        1 MOL      0.011845
     87 C29         5.3610    4.6980   -0.9000 ca        1 MOL     -0.325920
     88 C30         3.7400    6.5320   -0.6480 ca        1 MOL     -0.325920
     89 C31         6.3790    5.6660   -1.0660 ca        1 MOL     -0.010759
     90 C32         4.7850    7.4510   -0.7160 ca        1 MOL     -0.010759
     91 C33         6.0850    7.0640   -1.1240 ca        1 MOL      0.091482
     92 O14         7.0370    7.9530   -1.4240 oh        1 MOL     -0.407287
     93 H37         3.5280    1.6400    0.6490 hn        1 MOL     -0.206630
     94 H38         2.7780    4.4020    1.3220 h1        1 MOL      0.029134
     95 H39         1.9960    4.6590   -1.1080 hc        1 MOL     -0.056742
     96 H40         3.1310    3.3880   -1.6060 hc        1 MOL     -0.056742
     97 H41         5.6240    3.6580   -1.0160 ha        1 MOL      0.149514
     98 H42         2.7160    6.7900   -0.4590 ha        1 MOL      0.149514
     99 H43         7.3420    5.3170   -1.3940 ha        1 MOL      0.091375
    100 H44         4.6010    8.4960   -0.4940 ha        1 MOL      0.091375
    101 H45         6.6390    8.8300   -1.5020 ho        1 MOL      0.339425
    102 N10         0.4310    3.3880    1.4610 n         1 MOL     -0.333507
    103 C34        -0.9400    2.8380    1.4460 c3        1 MOL      0.005170
    104 C35        -1.9500    3.8720    0.8400 c         1 MOL      0.601451
    105 O15        -1.9270    5.0480    1.1780 o         1 MOL     -0.568781
    106 C36        -1.3760    2.3630    2.8260 c3        1 MOL      0.106920
    107 C37        -0.3900    1.2700    3.2240 c3        1 MOL      0.161152
    108 C38        -2.7730    1.8690    2.7920 c3        1 MOL     -0.062018
    109 C39        -0.6090    0.6050    4.5820 c3        1 MOL     -0.142697
    110 H46         0.6600    4.1570    2.0770 hn        1 MOL      0.297998
    111 H47        -1.0890    1.9560    0.8240 h1        1 MOL      0.078471
    112 H48        -1.3780    3.2110    3.5090 hc        1 MOL     -0.003315
    113 H49         0.5380    1.8550    3.2540 hc        1 MOL     -0.051509
    114 H50        -0.4300    0.4570    2.4990 hc        1 MOL     -0.051509
    115 H51        -3.0460    1.8750    3.8510 hc        1 MOL     -0.004957
    116 H52        -3.5220    2.5550    2.3970 hc        1 MOL     -0.004957
    117 H53        -2.9130    0.8240    2.4890 hc        1 MOL     -0.004957
    118 H54        -1.5940    0.1500    4.6000 hc        1 MOL      0.018885
    119 H55         0.0680   -0.2420    4.7200 hc        1 MOL      0.018885
    120 H56        -0.4100    1.1750    5.4970 hc        1 MOL      0.018885
    121 N11        -2.7020    3.3570   -0.1280 n         1 MOL     -0.367967
    122 C40        -3.9050    3.9250   -0.7610 c3        1 MOL      0.100667
    123 C41        -5.2520    3.5290   -0.0660 c         1 MOL      0.384270
    124 O16        -5.3350    2.5450    0.6420 o         1 MOL     -0.237605
    125 C42        -3.9690    3.5470   -2.1760 c3        1 MOL     -0.057778
    126 O17        -3.9220    2.1450   -2.2020 oh        1 MOL     -0.267332
    127 H57        -2.5680    2.3900   -0.3870 hn        1 MOL      0.176455
    128 H58        -3.8170    5.0130   -0.7460 h1        1 MOL      0.067677
    129 H59        -3.2090    3.9800   -2.8310 h1        1 MOL      0.054963
    130 H60        -4.9630    3.8120   -2.5120 h1        1 MOL      0.054963
    131 H61        -3.4180    1.8940   -2.9750 ho        1 MOL      0.343353
    132 N12        -6.3500    4.2210   -0.3660 n         1 MOL     -0.429968
    133 C43        -7.7060    3.8700    0.1150 c3        1 MOL      0.026845
    134 C44        -8.1070    2.4310   -0.3450 c         1 MOL      0.467580
    135 O18        -8.6040    1.7270    0.5000 o         1 MOL     -0.483890
    136 C45        -8.8380    4.7550   -0.5520 c3        1 MOL     -0.181638
    137 H62        -6.2780    4.9920   -1.0160 hn        1 MOL      0.288421
    138 H63        -7.7140    3.9930    1.2000 h1        1 MOL      0.125162
    139 H64        -9.7000    4.8650    0.0970 hc        1 MOL      0.067539
    140 H65        -8.4850    5.7790   -0.6890 hc        1 MOL      0.067539
    141 H66        -9.1240    4.4610   -1.5610 hc        1 MOL      0.067539
    142 N13        -7.6370    2.0120   -1.5220 n         1 MOL     -0.365226
    143 C46        -7.8540    0.7120   -2.1420 c3        1 MOL      0.084007
    144 C47        -6.9860   -0.3540   -1.4000 c         1 MOL      0.428481
    145 O19        -7.4790   -1.5170   -1.3490 o         1 MOL     -0.552741
    146 C48        -7.4300    0.8260   -3.6420 c3        1 MOL     -0.344056
    147 H67        -7.0970    2.6450   -2.0840 hn        1 MOL      0.286595
    148 H68        -8.8960    0.4040   -2.0590 h1        1 MOL      0.120856
    149 H69        -7.6480   -0.1820   -3.9950 hc        1 MOL      0.099164
    150 H70        -8.1510    1.4590   -4.1510 hc        1 MOL      0.099164
    151 H71        -6.3950    1.1400   -3.7980 hc        1 MOL      0.099164
    152 N14        -5.7880   -0.0310   -0.7400 n         1 MOL      0.004361
    153 C49        -5.0570   -0.9640    0.1220 c3        1 MOL      0.028167
    154 C50        -5.6050   -0.9470    1.5610 c         1 MOL      0.453232
    155 O20        -5.7780   -2.0120    2.1860 o         1 MOL     -0.559774
    156 C51        -3.5100   -0.7140    0.0850 c3        1 MOL     -0.062684
    157 C52        -2.8760   -1.1720   -1.2350 c3        1 MOL     -0.016698
    158 C53        -1.3560   -0.9440   -1.2700 c         1 MOL      0.635719
    159 O21        -0.9170   -0.2300   -2.2350 o         1 MOL     -0.693255
    160 O22        -0.5760   -1.2430   -0.3250 o         1 MOL     -0.693255
    161 H72        -5.4920    0.9370   -0.7100 hn        1 MOL     -0.330809
    162 H73        -5.2360   -1.9910   -0.2060 h1        1 MOL      0.013971
    163 H74        -3.0620   -1.2510    0.9220 hc        1 MOL      0.082667
    164 H75        -3.3500    0.3670    0.1720 hc        1 MOL      0.082667
    165 H76        -3.3150   -0.6550   -2.0920 hc        1 MOL     -0.029354
    166 H77        -3.0600   -2.2360   -1.3640 hc        1 MOL     -0.029354
    167 N15        -6.0990    0.1670    1.9850 n         1 MOL     -0.001398
    168 C54        -6.5770    0.3400    3.3290 c3        1 MOL     -0.243623
    169 H78        -6.9730    1.3490    3.4460 h1        1 MOL      0.096100
    170 H79        -7.3660   -0.3840    3.5310 h1        1 MOL      0.096100
    171 H80        -5.7560    0.1880    4.0300 h1        1 MOL      0.096100
    172 H81        -6.0650    0.9750    1.3810 hn        1 MOL      0.067598
    173 Ca1         1.6430   -0.3950   -1.3090 Ca        1 MOL      1.475614
    174 O23         1.5620    1.3850   -3.2530 oh        1 MOL     -0.744811
    175 H82         2.1770    1.4430   -3.9870 ho        1 MOL      0.382051
    176 H83         1.0570    2.1980   -3.3040 ho        1 MOL      0.382051
@<TRIPOS>BOND
     1    1    2 1   
     2    1    4 1   
     3    1    5 1   
     4    1    6 1   
     5    2    3 2   
     6    2    7 1   
     7    7    8 1   
     8    7   15 1   
     9    8    9 1   
    10    8   11 1   
    11    8   16 1   
    12    9   10 2   
    13    9   19 1   
    14   11   12 1   
    15   11   17 1   
    16   11   18 1   
    17   12   13 1   
    18   12   14 1   
    19   19   20 1   
    20   19   28 1   
    21   20   21 1   
    22   20   23 1   
    23   20   29 1   
    24   21   22 2   
    25   21   41 1   
    26   23   24 1   
    27   23   30 1   
    28   23   31 1   
    29   24   25 1   
    30   24   32 1   
    31   24   33 1   
    32   25   26 1   
    33   25   34 1   
    34   25   35 1   
    35   26   27 1   
    36   26   36 1   
    37   26   37 1   
    38   27   38 1   
    39   27   39 1   
    40   27   40 1   
    41   41   42 1   
    42   41   49 1   
    43   42   43 1   
    44   42   45 1   
    45   42   50 1   
    46   43   44 2   
    47   43   53 1   
    48   45   46 1   
    49   45   51 1   
    50   45   52 1   
    51   46   47 1   
    52   46   48 1   
    53   53   54 1   
    54   53   57 1   
    55   54   55 1   
    56   54   58 1   
    57   54   59 1   
    58   55   56 2   
    59   55   60 1   
    60   60   61 1   
    61   60   68 1   
    62   61   62 1   
    63   61   64 1   
    64   61   69 1   
    65   62   63 2   
    66   62   74 1   
    67   64   65 1   
    68   64   70 1   
    69   64   71 1   
    70   65   66 1   
    71   65   67 2   
    72   66   72 1   
    73   66   73 1   
    74   74   75 1   
    75   74   78 1   
    76   75   76 1   
    77   75   79 1   
    78   75   80 1   
    79   76   77 2   
    80   76   81 1   
    81   81   82 1   
    82   81   93 1   
    83   82   83 1   
    84   82   85 1   
    85   82   94 1   
    86   83   84 2   
    87   83  102 1   
    88   85   86 1   
    89   85   95 1   
    90   85   96 1   
    91   86   87 ar  
    92   86   88 ar  
    93   87   89 ar  
    94   87   97 1   
    95   88   90 ar  
    96   88   98 1   
    97   89   91 ar  
    98   89   99 1   
    99   90   91 ar  
   100   90  100 1   
   101   91   92 1   
   102   92  101 1   
   103  102  103 1   
   104  102  110 1   
   105  103  104 1   
   106  103  106 1   
   107  103  111 1   
   108  104  105 2   
   109  104  121 1   
   110  106  107 1   
   111  106  108 1   
   112  106  112 1   
   113  107  109 1   
   114  107  113 1   
   115  107  114 1   
   116  108  115 1   
   117  108  116 1   
   118  108  117 1   
   119  109  118 1   
   120  109  119 1   
   121  109  120 1   
   122  121  122 1   
   123  121  127 1   
   124  122  123 1   
   125  122  125 1   
   126  122  128 1   
   127  123  124 2   
   128  123  132 1   
   129  125  126 1   
   130  125  129 1   
   131  125  130 1   
   132  126  131 1   
   133  132  133 1   
   134  132  137 1   
   135  133  134 1   
   136  133  136 1   
   137  133  138 1   
   138  134  135 2   
   139  134  142 1   
   140  136  139 1   
   141  136  140 1   
   142  136  141 1   
   143  142  143 1   
   144  142  147 1   
   145  143  144 1   
   146  143  146 1   
   147  143  148 1   
   148  144  145 2   
   149  144  152 1   
   150  146  149 1   
   151  146  150 1   
   152  146  151 1   
   153  152  153 1   
   154  152  161 1   
   155  153  154 1   
   156  153  156 1   
   157  153  162 1   
   158  154  155 2   
   159  154  167 1   
   160  156  157 1   
   161  156  163 1   
   162  156  164 1   
   163  157  158 1   
   164  157  165 1   
   165  157  166 1   
   166  158  159 1   
   167  158  160 1   
   168  167  168 1   
   169  167  172 1   
   170  168  169 1   
   171  168  170 1   
   172  168  171 1   
   173  174  175 1   
   174  174  176 1   
@<TRIPOS>SUBSTRUCTURE
     1 MOL         1 TEMP              0 ****  ****    0 ROOT
