@<TRIPOS>MOLECULE
MOL
  189   185     1     0     0
SMALL
resp


@<TRIPOS>ATOM
      1 C1         -0.2080    2.5160    5.4600 c3        1 MOL     -0.212815
      2 C2         -0.7630    2.3410    4.0490 c         1 MOL      0.646152
      3 O1         -0.0550    2.4990    3.0500 o         1 MOL     -0.588777
      4 H1          0.4230    3.4040    5.4950 hc        1 MOL      0.059794
      5 H2         -1.0340    2.6300    6.1630 hc        1 MOL      0.059794
      6 H3          0.3820    1.6410    5.7300 hc        1 MOL      0.059794
      7 N1         -1.9720    1.7620    3.9630 n         1 MOL     -0.625679
      8 C3         -2.5240    1.3190    2.7030 c3        1 MOL      0.246194
      9 C4         -3.1900    2.5030    1.9880 c         1 MOL      0.477273
     10 O2         -4.3980    2.7050    1.9990 o         1 MOL     -0.484262
     11 C5         -3.3680    0.0520    2.8740 c3        1 MOL     -0.189822
     12 C6         -4.0870   -0.3250    1.5880 c         1 MOL      0.642602
     13 O3         -3.5900   -0.2270    0.4560 o         1 MOL     -0.661609
     14 O4         -5.2510   -0.8380    1.7150 o         1 MOL     -0.661609
     15 H4         -2.5000    1.5560    4.8060 hn        1 MOL      0.342829
     16 H5         -1.7350    1.0590    2.0040 h1        1 MOL      0.005257
     17 H6         -4.1220    0.2100    3.6460 hc        1 MOL      0.049341
     18 H7         -2.6490   -0.7030    3.1630 hc        1 MOL      0.049341
     19 N2         -2.3960    3.3930    1.3630 n         1 MOL     -0.425301
     20 C7         -2.8180    4.7620    1.0880 c3        1 MOL     -0.002082
     21 C8         -3.7520    4.9360   -0.1350 c         1 MOL      0.421922
     22 O5         -4.3600    6.0010   -0.3130 o         1 MOL     -0.565054
     23 C9         -1.6550    5.7260    1.0020 c3        1 MOL     -0.286754
     24 C10        -0.5780    5.3940   -0.0270 c3        1 MOL      0.294510
     25 C11         0.6130    6.4740   -0.0430 c3        1 MOL     -0.099523
     26 C12        -0.0460    7.7200   -0.6560 c3        1 MOL      0.107833
     27 N3          0.9550    8.8070   -0.9330 n4        1 MOL     -0.496648
     28 H8         -1.4100    3.2090    1.3800 hn        1 MOL      0.369465
     29 H9         -3.4530    5.1060    1.9030 h1        1 MOL      0.116758
     30 H10        -1.0920    5.6880    1.9380 hc        1 MOL      0.068802
     31 H11        -2.1020    6.7160    0.8980 hc        1 MOL      0.068802
     32 H12        -0.9950    5.2860   -1.0210 hc        1 MOL     -0.036871
     33 H13        -0.1120    4.4470    0.2560 hc        1 MOL     -0.036871
     34 H14         1.3980    6.0840   -0.6830 hc        1 MOL      0.045478
     35 H15         0.9290    6.6970    0.9740 hc        1 MOL      0.045478
     36 H16        -0.8490    8.1300   -0.0470 hx        1 MOL      0.074181
     37 H17        -0.5260    7.4280   -1.5940 hx        1 MOL      0.074181
     38 H18         1.7230    8.3910   -1.4490 hn        1 MOL      0.355502
     39 H19         0.4770    9.5860   -1.3560 hn        1 MOL      0.355502
     40 H20         1.3240    9.1570   -0.0610 hn        1 MOL      0.355502
     41 N4         -3.8680    3.8520   -0.9210 n         1 MOL     -0.139185
     42 C13        -4.9220    3.7380   -1.9330 c3        1 MOL      0.091603
     43 C14        -6.0840    2.8480   -1.5260 c         1 MOL      0.367667
     44 O6         -7.1060    2.7980   -2.1850 o         1 MOL     -0.524226
     45 C15        -4.2670    3.3560   -3.2650 c3        1 MOL     -0.363728
     46 C16        -3.2250    2.1970   -3.2720 c         1 MOL      0.734071
     47 O7         -2.2820    2.2220   -4.1290 o         1 MOL     -0.664432
     48 O8         -3.2230    1.3380   -2.3300 o         1 MOL     -0.664432
     49 H21        -3.2920    3.0570   -0.7070 hn        1 MOL      0.172870
     50 H22        -5.3420    4.7400   -2.0360 h1        1 MOL      0.082783
     51 H23        -3.7040    4.2270   -3.5980 hc        1 MOL      0.089208
     52 H24        -5.0340    3.1170   -4.0100 hc        1 MOL      0.089208
     53 N5         -5.9980    2.1450   -0.3900 n         1 MOL      0.015994
     54 C17        -7.0950    1.4420    0.2150 c3        1 MOL     -0.194629
     55 C18        -7.4240    0.2370   -0.6580 c         1 MOL      0.511854
     56 O9         -8.6000   -0.1450   -0.7570 o         1 MOL     -0.589201
     57 H25        -5.1550    2.1870    0.1710 hn        1 MOL     -0.017607
     58 H26        -7.9370    2.1230    0.2990 h1        1 MOL      0.110322
     59 H27        -6.7240    1.0920    1.1900 h1        1 MOL      0.110322
     60 N6         -6.4770   -0.3340   -1.3430 n         1 MOL     -0.072565
     61 C19        -6.7370   -1.5570   -2.1830 c3        1 MOL     -0.149535
     62 C20        -6.8110   -2.9460   -1.3950 c         1 MOL      0.479049
     63 O10        -7.2840   -3.9260   -1.9410 o         1 MOL     -0.534782
     64 C21        -5.7080   -1.7350   -3.2810 c3        1 MOL     -0.224169
     65 C22        -4.2260   -1.8910   -2.8670 c         1 MOL      0.851859
     66 O11        -3.2930   -1.4880   -3.5730 o         1 MOL     -0.765943
     67 O12        -3.8520   -2.2930   -1.7860 o         1 MOL     -0.765943
     68 H28        -5.5470   -0.0770   -1.0600 hn        1 MOL      0.059060
     69 H29        -7.7130   -1.4880   -2.6590 h1        1 MOL      0.157647
     70 H30        -5.9030   -0.9170   -3.9760 hc        1 MOL      0.082393
     71 H31        -5.8260   -2.5990   -3.9210 hc        1 MOL      0.082393
     72 N7         -6.6190   -2.8900   -0.0770 n         1 MOL     -0.324390
     73 C23        -6.5440   -4.1830    0.7630 c3        1 MOL     -0.051070
     74 C24        -5.1250   -4.6920    1.0200 c         1 MOL      0.512599
     75 O13        -4.9870   -5.8150    1.5770 o         1 MOL     -0.580333
     76 H32        -6.4540   -2.0210    0.3990 hn        1 MOL      0.287038
     77 H33        -7.0860   -5.0170    0.3350 h1        1 MOL      0.087281
     78 H34        -7.0430   -3.9440    1.6940 h1        1 MOL      0.087281
     79 N8         -4.0480   -3.9130    0.8160 n         1 MOL     -0.242108
     80 C25        -2.6690   -4.5380    0.8970 c3        1 MOL     -0.339904
     81 C26        -1.5980   -3.4870    1.1590 c         1 MOL      0.859028
     82 O14        -1.7040   -2.4230    0.5730 o         1 MOL     -0.643289
     83 C27        -2.3190   -5.2770   -0.4250 c3        1 MOL      0.550207
     84 C28        -2.7870   -6.6800   -0.6020 c3        1 MOL     -0.410685
     85 O15        -2.7840   -4.6760   -1.5570 oh        1 MOL     -0.686677
     86 H35        -4.1710   -2.9700    0.4630 hn        1 MOL      0.209762
     87 H36        -2.6070   -5.2490    1.7320 h1        1 MOL      0.139716
     88 H37        -1.2360   -5.2910   -0.5880 h1        1 MOL     -0.040077
     89 H38        -3.1370   -3.7900   -1.4650 ho        1 MOL      0.488043
     90 H39        -2.4410   -7.1160   -1.5340 hc        1 MOL      0.096508
     91 H40        -2.3460   -7.2250    0.2330 hc        1 MOL      0.096508
     92 H41        -3.8610   -6.6230   -0.4350 hc        1 MOL      0.096508
     93 N9         -0.5530   -3.8090    1.8990 n         1 MOL     -0.784511
     94 C29         0.6490   -2.9830    2.1140 c3        1 MOL      0.040985
     95 C30         1.8550   -3.3950    1.1840 c         1 MOL      0.533591
     96 O16         2.0100   -4.5860    0.9790 o         1 MOL     -0.556033
     97 C31         1.0240   -2.7660    3.6300 c3        1 MOL      0.258429
     98 C32        -0.2820   -2.0770    4.2450 c3        1 MOL      0.072385
     99 C33         2.2730   -1.8560    3.6280 c3        1 MOL     -0.510422
    100 C34        -0.2220   -2.2120    5.7890 c3        1 MOL     -0.344493
    101 H42        -0.4630   -4.7680    2.2050 hn        1 MOL      0.336162
    102 H43         0.3240   -2.0130    1.7460 h1        1 MOL      0.127463
    103 H44         1.3170   -3.6470    4.1980 hc        1 MOL     -0.002159
    104 H45        -1.2050   -2.6200    4.0520 hc        1 MOL      0.037467
    105 H46        -0.3700   -1.0480    3.8900 hc        1 MOL      0.037467
    106 H47         2.3860   -1.4390    4.6270 hc        1 MOL      0.092636
    107 H48         3.0910   -2.5040    3.3070 hc        1 MOL      0.092636
    108 H49         2.1530   -1.0390    2.9160 hc        1 MOL      0.092636
    109 H50         0.1720   -3.1910    6.0450 hc        1 MOL      0.079394
    110 H51         0.5390   -1.5540    6.2180 hc        1 MOL      0.079394
    111 H52        -1.1740   -1.9470    6.2480 hc        1 MOL      0.079394
    112 N10         2.6840   -2.4390    0.7040 n         1 MOL     -0.141504
    113 C35         3.9530   -2.6460   -0.1100 c3        1 MOL      0.009345
    114 C36         5.1800   -2.1410    0.6060 c         1 MOL      0.465167
    115 O17         5.1060   -1.3080    1.5260 o         1 MOL     -0.444917
    116 C37         3.8780   -1.9770   -1.4350 c3        1 MOL      0.028674
    117 C38         2.8910   -2.5270   -2.4150 c3        1 MOL     -0.285731
    118 O18         3.5640   -0.5930   -1.2550 oh        1 MOL     -0.236124
    119 H53         2.3550   -1.4890    0.6550 hn        1 MOL      0.147058
    120 H54         4.1060   -3.7200   -0.2370 h1        1 MOL      0.059084
    121 H55         4.7850   -2.1740   -2.0120 h1        1 MOL      0.037211
    122 H56         3.1220   -0.3580   -2.0760 ho        1 MOL      0.323980
    123 H57         2.8130   -1.8440   -3.2680 hc        1 MOL      0.087340
    124 H58         3.3240   -3.4080   -2.8900 hc        1 MOL      0.087340
    125 H59         1.9100   -2.7420   -1.9810 hc        1 MOL      0.087340
    126 N11         6.3460   -2.5390    0.1500 n         1 MOL     -0.430710
    127 C39         7.6630   -1.8920    0.5200 c3        1 MOL     -0.028065
    128 C40         7.6720   -0.3440    0.2800 c         1 MOL      0.170738
    129 O19         8.3040    0.4090    1.0540 o         1 MOL     -0.493051
    130 C41         8.7550   -2.5020   -0.4270 c3        1 MOL      0.183996
    131 C42         9.0900   -3.9640   -0.2750 c3        1 MOL     -0.496714
    132 O20         8.4720   -2.3290   -1.7680 oh        1 MOL     -0.559444
    133 H60         6.2840   -3.2220   -0.5920 hn        1 MOL      0.301560
    134 H61         7.8250   -2.0710    1.5800 h1        1 MOL      0.155028
    135 H62         9.6100   -1.8570   -0.2300 h1        1 MOL      0.058421
    136 H63         9.3170   -2.2590   -2.2080 ho        1 MOL      0.346537
    137 H64         9.3960   -4.1670    0.7510 hc        1 MOL      0.150535
    138 H65         8.2900   -4.6390   -0.5790 hc        1 MOL      0.150535
    139 H66         9.9810   -4.2320   -0.8410 hc        1 MOL      0.150535
    140 N12         6.8940    0.0930   -0.6830 n         1 MOL      0.355721
    141 C43         6.8820    1.5380   -0.9130 c3        1 MOL      0.059070
    142 C44         5.8040    2.2040    0.0060 c         1 MOL      0.200502
    143 O21         6.0290    3.2530    0.5830 o         1 MOL     -0.493948
    144 C45         6.4810    1.8150   -2.3430 c3        1 MOL     -0.328023
    145 C46         7.0330    0.8780   -3.4520 c3        1 MOL      0.032065
    146 C47         8.5590    0.7500   -3.4790 c3        1 MOL      0.083507
    147 C48         8.8530   -0.1220   -4.6760 c3        1 MOL     -0.000446
    148 N13        10.2990   -0.3490   -4.9580 n4        1 MOL     -0.308464
    149 H67         6.3380   -0.5560   -1.2270 hn        1 MOL      0.029215
    150 H68         7.8260    2.0230   -0.6760 h1        1 MOL      0.055844
    151 H69         6.8650    2.8110   -2.5730 hc        1 MOL      0.109224
    152 H70         5.3950    1.7620   -2.4000 hc        1 MOL      0.109224
    153 H71         6.7590    1.2720   -4.4370 hc        1 MOL     -0.003640
    154 H72         6.6250   -0.1240   -3.3440 hc        1 MOL     -0.003640
    155 H73         8.9480    0.3200   -2.5670 hc        1 MOL     -0.005240
    156 H74         8.9810    1.7390   -3.6700 hc        1 MOL     -0.005240
    157 H75         8.3910    0.3740   -5.5310 hx        1 MOL      0.089252
    158 H76         8.2280   -1.0100   -4.5360 hx        1 MOL      0.089252
    159 H77        10.7260    0.5530   -5.1230 hn        1 MOL      0.252743
    160 H78        10.8210   -0.7400   -4.1820 hn        1 MOL      0.252743
    161 H79        10.4810   -0.8100   -5.8380 hn        1 MOL      0.252743
    162 N14         4.7820    1.4600    0.3900 n         1 MOL      0.374598
    163 C49         3.7970    1.8880    1.3710 c3        1 MOL     -0.337611
    164 C50         4.3430    2.0400    2.8470 c         1 MOL      0.527796
    165 O22         4.1210    3.1240    3.4070 o         1 MOL     -0.544972
    166 C51         2.4800    1.0700    1.1990 c3        1 MOL      0.134602
    167 C52         1.5520    1.7920    0.2390 c3        1 MOL     -0.422956
    168 C53         0.2940    0.9260   -0.1400 c         1 MOL      0.764723
    169 O23         0.2970   -0.3090   -0.2180 o         1 MOL     -0.760947
    170 O24        -0.7550    1.4920   -0.5470 o         1 MOL     -0.760947
    171 H80         4.6550    0.6220   -0.1630 hn        1 MOL     -0.272473
    172 H81         3.4990    2.9060    1.1210 h1        1 MOL      0.095745
    173 H82         2.0660    1.0530    2.2040 hc        1 MOL      0.065113
    174 H83         2.7530    0.0490    0.9140 hc        1 MOL      0.065113
    175 H84         2.0870    2.0400   -0.6750 hc        1 MOL      0.088031
    176 H85         1.2050    2.7210    0.6860 hc        1 MOL      0.088031
    177 N15         5.1660    1.1120    3.2710 n         1 MOL     -0.241525
    178 C54         6.0750    1.1470    4.4290 c3        1 MOL     -0.136948
    179 H86         5.9460    2.0890    4.9630 h1        1 MOL      0.078270
    180 H87         5.8440    0.3170    5.0980 h1        1 MOL      0.078270
    181 H88         7.1060    1.0620    4.0860 h1        1 MOL      0.078270
    182 H89         5.4340    0.4460    2.5630 hn        1 MOL      0.231638
    183 Ca1        -1.9690   -0.7040   -1.4400 Ca        1 MOL      1.789861
    184 O25        -0.8790   -2.8010   -2.3990 oh        1 MOL     -0.786960
    185 H90        -1.3570   -3.6350   -2.4500 ho        1 MOL      0.373676
    186 H91        -0.3320   -2.7980   -3.1890 ho        1 MOL      0.373676
    187 O26        -0.1930    0.2560   -3.3390 oh        1 MOL     -0.786960
    188 H92        -0.5710    0.9030   -3.9450 ho        1 MOL      0.373676
    189 H93         0.7250    0.1920   -3.6070 ho        1 MOL      0.373676
@<TRIPOS>BOND
     1    1    2 1   
     2    1    4 1   
     3    1    5 1   
     4    1    6 1   
     5    2    3 2   
     6    2    7 1   
     7    7    8 1   
     8    7   15 1   
     9    8    9 1   
    10    8   11 1   
    11    8   16 1   
    12    9   10 2   
    13    9   19 1   
    14   11   12 1   
    15   11   17 1   
    16   11   18 1   
    17   12   13 1   
    18   12   14 1   
    19   19   20 1   
    20   19   28 1   
    21   20   21 1   
    22   20   23 1   
    23   20   29 1   
    24   21   22 2   
    25   21   41 1   
    26   23   24 1   
    27   23   30 1   
    28   23   31 1   
    29   24   25 1   
    30   24   32 1   
    31   24   33 1   
    32   25   26 1   
    33   25   34 1   
    34   25   35 1   
    35   26   27 1   
    36   26   36 1   
    37   26   37 1   
    38   27   38 1   
    39   27   39 1   
    40   27   40 1   
    41   41   42 1   
    42   41   49 1   
    43   42   43 1   
    44   42   45 1   
    45   42   50 1   
    46   43   44 2   
    47   43   53 1   
    48   45   46 1   
    49   45   51 1   
    50   45   52 1   
    51   46   47 1   
    52   46   48 1   
    53   53   54 1   
    54   53   57 1   
    55   54   55 1   
    56   54   58 1   
    57   54   59 1   
    58   55   56 2   
    59   55   60 1   
    60   60   61 1   
    61   60   68 1   
    62   61   62 1   
    63   61   64 1   
    64   61   69 1   
    65   62   63 2   
    66   62   72 1   
    67   64   65 1   
    68   64   70 1   
    69   64   71 1   
    70   65   66 1   
    71   65   67 1   
    72   72   73 1   
    73   72   76 1   
    74   73   74 1   
    75   73   77 1   
    76   73   78 1   
    77   74   75 2   
    78   74   79 1   
    79   79   80 1   
    80   79   86 1   
    81   80   81 1   
    82   80   83 1   
    83   80   87 1   
    84   81   82 2   
    85   81   93 1   
    86   83   84 1   
    87   83   85 1   
    88   83   88 1   
    89   84   90 1   
    90   84   91 1   
    91   84   92 1   
    92   85   89 1   
    93   93   94 1   
    94   93  101 1   
    95   94   95 1   
    96   94   97 1   
    97   94  102 1   
    98   95   96 2   
    99   95  112 1   
   100   97   98 1   
   101   97   99 1   
   102   97  103 1   
   103   98  100 1   
   104   98  104 1   
   105   98  105 1   
   106   99  106 1   
   107   99  107 1   
   108   99  108 1   
   109  100  109 1   
   110  100  110 1   
   111  100  111 1   
   112  112  113 1   
   113  112  119 1   
   114  113  114 1   
   115  113  116 1   
   116  113  120 1   
   117  114  115 2   
   118  114  126 1   
   119  116  117 1   
   120  116  118 1   
   121  116  121 1   
   122  117  123 1   
   123  117  124 1   
   124  117  125 1   
   125  118  122 1   
   126  126  127 1   
   127  126  133 1   
   128  127  128 1   
   129  127  130 1   
   130  127  134 1   
   131  128  129 2   
   132  128  140 1   
   133  130  131 1   
   134  130  132 1   
   135  130  135 1   
   136  131  137 1   
   137  131  138 1   
   138  131  139 1   
   139  132  136 1   
   140  140  141 1   
   141  140  149 1   
   142  141  142 1   
   143  141  144 1   
   144  141  150 1   
   145  142  143 2   
   146  142  162 1   
   147  144  145 1   
   148  144  151 1   
   149  144  152 1   
   150  145  146 1   
   151  145  153 1   
   152  145  154 1   
   153  146  147 1   
   154  146  155 1   
   155  146  156 1   
   156  147  148 1   
   157  147  157 1   
   158  147  158 1   
   159  148  159 1   
   160  148  160 1   
   161  148  161 1   
   162  162  163 1   
   163  162  171 1   
   164  163  164 1   
   165  163  166 1   
   166  163  172 1   
   167  164  165 2   
   168  164  177 1   
   169  166  167 1   
   170  166  173 1   
   171  166  174 1   
   172  167  168 1   
   173  167  175 1   
   174  167  176 1   
   175  168  169 1   
   176  168  170 1   
   177  177  178 1   
   178  177  182 1   
   179  178  179 1   
   180  178  180 1   
   181  178  181 1   
   182  184  185 1   
   183  184  186 1   
   184  187  188 1   
   185  187  189 1   
@<TRIPOS>SUBSTRUCTURE
     1 MOL         1 TEMP              0 ****  ****    0 ROOT
