@<TRIPOS>MOLECULE
MOL
  189   185     1     0     0
SMALL
resp


@<TRIPOS>ATOM
      1 C1          0.0690    1.9790    5.3700 c3        1 MOL     -0.400735
      2 C2         -0.5550    1.8290    3.9680 c         1 MOL      0.571430
      3 O1          0.0000    2.2640    2.9730 o         1 MOL     -0.573411
      4 H1          0.4780    2.9840    5.4800 hc        1 MOL      0.114656
      5 H2         -0.6960    1.8140    6.1290 hc        1 MOL      0.114656
      6 H3          0.8680    1.2480    5.4930 hc        1 MOL      0.114656
      7 N1         -1.7210    1.1480    3.8390 n         1 MOL     -0.381919
      8 C3         -2.5380    0.9970    2.5980 c3        1 MOL      0.219080
      9 C4         -3.0440    2.4120    2.1390 c         1 MOL      0.249484
     10 O2         -4.2470    2.6660    2.3210 o         1 MOL     -0.430738
     11 C5         -3.5880   -0.0520    2.7820 c3        1 MOL     -0.269966
     12 C6         -4.5030   -0.1990    1.5480 c         1 MOL      0.688769
     13 O3         -5.6250   -0.7750    1.6040 o         1 MOL     -0.620839
     14 O4         -3.9010    0.0330    0.4380 o         1 MOL     -0.620839
     15 H4         -2.0560    0.8380    4.7410 hn        1 MOL      0.258132
     16 H5         -1.8660    0.6170    1.8320 h1        1 MOL     -0.004509
     17 H6         -4.2270    0.2000    3.6240 hc        1 MOL      0.065498
     18 H7         -3.0260   -0.9780    2.9530 hc        1 MOL      0.065498
     19 N2         -2.1930    3.2840    1.5990 n         1 MOL     -0.237437
     20 C7         -2.3890    4.7460    1.3240 c3        1 MOL      0.276807
     21 C8         -3.5790    4.9380    0.3670 c         1 MOL      0.395343
     22 O5         -4.2480    5.9400    0.4990 o         1 MOL     -0.560036
     23 C9         -1.1000    5.3390    0.7680 c3        1 MOL     -0.329138
     24 C10        -1.0750    6.8580    0.3370 c3        1 MOL     -0.081788
     25 C11        -1.3230    7.8050    1.5200 c3        1 MOL     -0.188534
     26 C12        -1.0050    9.2690    1.1590 c3        1 MOL      0.017811
     27 N3          0.3170    9.5840    1.7880 n4        1 MOL     -0.457497
     28 H8         -1.2460    2.9500    1.5560 hn        1 MOL      0.236015
     29 H9         -2.6750    5.3830    2.1560 h1        1 MOL     -0.030529
     30 H10        -0.7380    4.7950   -0.0990 hc        1 MOL      0.121325
     31 H11        -0.4750    5.2430    1.6540 hc        1 MOL      0.121325
     32 H12        -1.8860    7.1160   -0.3480 hc        1 MOL      0.074161
     33 H13        -0.1330    7.0800   -0.1660 hc        1 MOL      0.074161
     34 H14        -0.7860    7.4500    2.4070 hc        1 MOL      0.108499
     35 H15        -2.4090    7.8730    1.4980 hc        1 MOL      0.108499
     36 H16        -1.7720    9.8300    1.7110 hx        1 MOL      0.113983
     37 H17        -1.1190    9.4070    0.0910 hx        1 MOL      0.113983
     38 H18         1.1160    9.0690    1.4460 hn        1 MOL      0.350302
     39 H19         0.4750   10.5830    1.7310 hn        1 MOL      0.350302
     40 H20         0.2700    9.3270    2.7540 hn        1 MOL      0.350302
     41 N4         -3.6490    4.0600   -0.6290 n         1 MOL     -0.212362
     42 C13        -4.5820    4.0440   -1.8050 c3        1 MOL      0.147821
     43 C14        -5.7640    3.0410   -1.6890 c         1 MOL      0.338139
     44 O6         -6.6200    2.9740   -2.5630 o         1 MOL     -0.501088
     45 C15        -3.7300    3.9120   -3.0950 c3        1 MOL     -0.238057
     46 C16        -2.7740    2.6850   -3.0710 c         1 MOL      0.796734
     47 O7         -1.9380    2.4550   -3.9930 o         1 MOL     -0.716332
     48 O8         -2.6720    2.0250   -2.0420 o         1 MOL     -0.716332
     49 H21        -2.9750    3.3130   -0.6710 hn        1 MOL      0.191396
     50 H22        -5.1110    5.0010   -1.8940 h1        1 MOL      0.049263
     51 H23        -3.1280    4.8150   -3.0830 hc        1 MOL      0.045172
     52 H24        -4.3720    3.9830   -3.9700 hc        1 MOL      0.045172
     53 N5         -5.8010    2.3400   -0.5870 n         1 MOL      0.038071
     54 C17        -6.9580    1.5850   -0.0700 c3        1 MOL     -0.134780
     55 C18        -7.3760    0.5540   -0.9970 c         1 MOL      0.528739
     56 O9         -8.4770    0.6740   -1.5820 o         1 MOL     -0.564943
     57 H25        -4.9000    2.3570   -0.1280 hn        1 MOL     -0.092616
     58 H26        -7.8130    2.2460    0.0840 h1        1 MOL      0.079531
     59 H27        -6.6630    1.0810    0.8460 h1        1 MOL      0.079531
     60 N6         -6.5270   -0.4550   -1.1410 n         1 MOL     -0.188286
     61 C19        -6.8310   -1.6320   -1.9790 c3        1 MOL     -0.011774
     62 C20        -6.6580   -3.0320   -1.2180 c         1 MOL      0.371062
     63 O10        -6.8270   -4.1560   -1.7810 o         1 MOL     -0.533085
     64 C21        -5.8820   -1.6500   -3.2100 c3        1 MOL     -0.100051
     65 C22        -4.4200   -1.6230   -2.8220 c         1 MOL      0.697872
     66 O11        -3.6020   -0.9530   -3.4560 o         1 MOL     -0.674523
     67 O12        -3.9770   -2.1550   -1.7510 o         1 MOL     -0.674523
     68 H28        -5.6910   -0.5270   -0.5770 hn        1 MOL      0.044329
     69 H29        -7.8670   -1.5440   -2.3040 h1        1 MOL      0.084184
     70 H30        -5.9590   -0.7990   -3.8910 hc        1 MOL      0.045483
     71 H31        -6.0260   -2.5590   -3.7990 hc        1 MOL      0.045483
     72 N7         -6.4770   -2.9790    0.0720 n         1 MOL     -0.200676
     73 C23        -6.5250   -4.0830    1.0230 c3        1 MOL     -0.051081
     74 C24        -5.2320   -4.8570    0.9510 c         1 MOL      0.469931
     75 O13        -5.2060   -5.9990    1.4320 o         1 MOL     -0.570943
     76 H32        -6.3310   -2.0840    0.5170 hn        1 MOL      0.207936
     77 H33        -7.4370   -4.6590    0.9040 h1        1 MOL      0.078628
     78 H34        -6.6860   -3.6750    2.0160 h1        1 MOL      0.078628
     79 N8         -4.1400   -4.2840    0.4620 n         1 MOL     -0.260489
     80 C25        -2.8000   -4.8750    0.3480 c3        1 MOL     -0.067908
     81 C26        -1.8150   -3.7700    0.6700 c         1 MOL      0.514026
     82 O14        -2.0570   -2.5950    0.3520 o         1 MOL     -0.583706
     83 C27        -2.5650   -5.4460   -1.0830 c3        1 MOL      0.547093
     84 C28        -3.0220   -6.9010   -1.2130 c3        1 MOL     -0.456247
     85 O15        -3.1280   -4.6670   -2.1650 oh        1 MOL     -0.617212
     86 H35        -4.2480   -3.4070   -0.0330 hn        1 MOL      0.253151
     87 H36        -2.7470   -5.6370    1.1130 h1        1 MOL      0.081130
     88 H37        -1.4890   -5.4720   -1.2350 h1        1 MOL     -0.071995
     89 H38        -3.3330   -3.8210   -1.7630 ho        1 MOL      0.360330
     90 H39        -4.1000   -6.8690   -1.3580 hc        1 MOL      0.112496
     91 H40        -2.4190   -7.3160   -2.0180 hc        1 MOL      0.112496
     92 H41        -2.7860   -7.4110   -0.2770 hc        1 MOL      0.112496
     93 N9         -0.6490   -4.1810    1.1560 n         1 MOL     -0.511235
     94 C29         0.5150   -3.3440    1.4960 c3        1 MOL      0.042650
     95 C30         1.8210   -3.7500    0.8360 c         1 MOL      0.472129
     96 O16         2.2500   -4.9140    0.9650 o         1 MOL     -0.560180
     97 C31         0.6580   -3.2380    3.0590 c3        1 MOL      0.209394
     98 C32        -0.6140   -2.7430    3.8400 c3        1 MOL      0.042484
     99 C33         1.8890   -2.4320    3.6460 c3        1 MOL     -0.465053
    100 C34        -0.7710   -3.1380    5.3190 c3        1 MOL     -0.246020
    101 H42        -0.3690   -5.1430    1.2640 hn        1 MOL      0.286150
    102 H43         0.2900   -2.3300    1.1880 h1        1 MOL      0.050940
    103 H44         0.7910   -4.2690    3.3800 hc        1 MOL     -0.014414
    104 H45        -1.5270   -2.9960    3.3000 hc        1 MOL      0.017877
    105 H46        -0.5830   -1.6510    3.7960 hc        1 MOL      0.017877
    106 H47         1.9620   -2.4900    4.7340 hc        1 MOL      0.099007
    107 H48         2.8180   -2.7100    3.1460 hc        1 MOL      0.099007
    108 H49         1.7670   -1.3840    3.3760 hc        1 MOL      0.099007
    109 H50        -0.0680   -2.6100    5.9560 hc        1 MOL      0.061998
    110 H51        -1.7350   -2.9180    5.7780 hc        1 MOL      0.061998
    111 H52        -0.5200   -4.1930    5.4120 hc        1 MOL      0.061998
    112 N10         2.4660   -2.8530    0.1310 n         1 MOL     -0.123929
    113 C35         3.7160   -2.8760   -0.6140 c3        1 MOL     -0.148262
    114 C36         4.9950   -2.5430    0.2140 c         1 MOL      0.586399
    115 O17         4.8800   -1.8980    1.2610 o         1 MOL     -0.473167
    116 C37         3.6280   -1.9140   -1.7970 c3        1 MOL      0.268750
    117 C38         2.5130   -2.2310   -2.7850 c3        1 MOL     -0.346816
    118 O18         3.5220   -0.6160   -1.4160 oh        1 MOL     -0.540995
    119 H53         2.0230   -1.9520    0.1240 hn        1 MOL      0.238308
    120 H54         3.9650   -3.9100   -0.8530 h1        1 MOL      0.058058
    121 H55         4.5300   -2.0320   -2.4060 h1        1 MOL     -0.001195
    122 H56         2.6290   -0.5090   -1.0930 ho        1 MOL      0.373716
    123 H57         2.6280   -1.5180   -3.6020 hc        1 MOL      0.090668
    124 H58         2.5910   -3.2550   -3.1530 hc        1 MOL      0.090668
    125 H59         1.5720   -2.0860   -2.2540 hc        1 MOL      0.090668
    126 N11         6.1260   -2.9730   -0.2880 n         1 MOL     -0.391603
    127 C39         7.4530   -2.6780    0.3460 c3        1 MOL     -0.068341
    128 C40         7.6630   -1.1320    0.3670 c         1 MOL      0.306855
    129 O19         8.2350   -0.6120    1.3780 o         1 MOL     -0.495477
    130 C41         8.6610   -3.2830   -0.3870 c3        1 MOL      0.248458
    131 C42         8.7220   -4.6980    0.1300 c3        1 MOL     -0.368498
    132 O20         8.5850   -3.2430   -1.7750 oh        1 MOL     -0.634930
    133 H60         6.0380   -3.4030   -1.2010 hn        1 MOL      0.294785
    134 H61         7.5320   -3.0110    1.3860 h1        1 MOL      0.164805
    135 H62         9.6000   -2.7840   -0.1190 h1        1 MOL      0.061816
    136 H63         9.3730   -3.7220   -2.0580 ho        1 MOL      0.429961
    137 H64         7.8940   -5.2800   -0.2790 hc        1 MOL      0.104225
    138 H65         9.6260   -5.1460   -0.2830 hc        1 MOL      0.104225
    139 H66         8.7200   -4.7970    1.2150 hc        1 MOL      0.104225
    140 N12         7.2550   -0.3840   -0.6450 n         1 MOL     -0.182456
    141 C43         7.3580    1.0960   -0.7800 c3        1 MOL     -0.048266
    142 C44         6.3720    1.8210    0.1570 c         1 MOL      0.351047
    143 O21         6.5600    2.9540    0.5930 o         1 MOL     -0.517524
    144 C45         7.2260    1.5310   -2.2450 c3        1 MOL     -0.301453
    145 C46         8.6360    1.5430   -2.9010 c3        1 MOL      0.160883
    146 C47         8.5450    1.8010   -4.4070 c3        1 MOL     -0.087413
    147 C48         8.3730    3.3070   -4.7200 c3        1 MOL      0.067073
    148 N13         8.1470    3.5630   -6.1500 n4        1 MOL     -0.382422
    149 H67         6.6970   -0.8020   -1.3790 hn        1 MOL      0.242118
    150 H68         8.2950    1.4750   -0.3850 h1        1 MOL      0.137922
    151 H69         6.8080    2.5230   -2.4080 hc        1 MOL      0.102245
    152 H70         6.5140    0.8630   -2.7150 hc        1 MOL      0.102245
    153 H71         9.1240    0.5800   -2.7910 hc        1 MOL      0.001668
    154 H72         9.2730    2.2660   -2.3980 hc        1 MOL      0.001668
    155 H73         7.6650    1.2900   -4.7820 hc        1 MOL      0.042826
    156 H74         9.4220    1.3880   -4.9100 hc        1 MOL      0.042826
    157 H75         9.2940    3.8280   -4.4210 hx        1 MOL      0.074502
    158 H76         7.5010    3.6730   -4.1990 hx        1 MOL      0.074502
    159 H77         8.0350    4.5680   -6.2310 hn        1 MOL      0.311943
    160 H78         8.8980    3.1870   -6.7090 hn        1 MOL      0.311943
    161 H79         7.2830    3.1020   -6.3730 hn        1 MOL      0.311943
    162 N14         5.3430    1.0630    0.6050 n         1 MOL      0.124690
    163 C49         4.3170    1.5620    1.5450 c3        1 MOL     -0.180603
    164 C50         4.8080    1.3710    2.9690 c         1 MOL      0.494508
    165 O22         4.6960    2.2790    3.7960 o         1 MOL     -0.552138
    166 C51         3.0010    0.7670    1.3560 c3        1 MOL      0.037927
    167 C52         2.1330    1.4790    0.2300 c3        1 MOL     -0.059102
    168 C53         0.8310    0.7690   -0.1590 c         1 MOL      0.716933
    169 O23         0.8380   -0.4060   -0.4820 o         1 MOL     -0.734090
    170 O24        -0.2180    1.4320   -0.2490 o         1 MOL     -0.734090
    171 H80         5.2410    0.1000    0.3460 hn        1 MOL     -0.065196
    172 H81         4.1670    2.6030    1.2610 h1        1 MOL      0.110672
    173 H82         2.3730    0.7770    2.2500 hc        1 MOL      0.025731
    174 H83         3.2230   -0.2430    1.0050 hc        1 MOL      0.025731
    175 H84         2.8120    1.5630   -0.6140 hc        1 MOL     -0.010715
    176 H85         1.7960    2.4720    0.5280 hc        1 MOL     -0.010715
    177 N15         5.5930    0.3340    3.3040 n         1 MOL     -0.189688
    178 C54         6.3410    0.3380    4.5330 c3        1 MOL     -0.254620
    179 H86         6.4180    1.3580    4.9080 h1        1 MOL      0.103640
    180 H87         5.8310   -0.2820    5.2720 h1        1 MOL      0.103640
    181 H88         7.3400   -0.0590    4.3530 h1        1 MOL      0.103640
    182 H89         5.8430   -0.3500    2.6030 hn        1 MOL      0.218247
    183 Ca1        -1.8780   -0.3110   -1.2590 Ca        1 MOL      1.759777
    184 O25        -1.0380   -2.6230   -2.3680 oh        1 MOL     -0.824739
    185 H90        -1.6410   -3.3520   -2.2460 ho        1 MOL      0.386103
    186 H91        -1.0960   -2.4060   -3.2880 ho        1 MOL      0.386103
    187 O26        -0.5840    0.2600   -3.6260 oh        1 MOL     -0.824739
    188 H92         0.2750    0.1850   -4.0470 ho        1 MOL      0.386103
    189 H93        -0.9880    1.0090   -4.0490 ho        1 MOL      0.386103
@<TRIPOS>BOND
     1    1    2 1   
     2    1    4 1   
     3    1    5 1   
     4    1    6 1   
     5    2    3 2   
     6    2    7 1   
     7    7    8 1   
     8    7   15 1   
     9    8    9 1   
    10    8   11 1   
    11    8   16 1   
    12    9   10 2   
    13    9   19 1   
    14   11   12 1   
    15   11   17 1   
    16   11   18 1   
    17   12   13 1   
    18   12   14 1   
    19   19   20 1   
    20   19   28 1   
    21   20   21 1   
    22   20   23 1   
    23   20   29 1   
    24   21   22 2   
    25   21   41 1   
    26   23   24 1   
    27   23   30 1   
    28   23   31 1   
    29   24   25 1   
    30   24   32 1   
    31   24   33 1   
    32   25   26 1   
    33   25   34 1   
    34   25   35 1   
    35   26   27 1   
    36   26   36 1   
    37   26   37 1   
    38   27   38 1   
    39   27   39 1   
    40   27   40 1   
    41   41   42 1   
    42   41   49 1   
    43   42   43 1   
    44   42   45 1   
    45   42   50 1   
    46   43   44 2   
    47   43   53 1   
    48   45   46 1   
    49   45   51 1   
    50   45   52 1   
    51   46   47 1   
    52   46   48 1   
    53   53   54 1   
    54   53   57 1   
    55   54   55 1   
    56   54   58 1   
    57   54   59 1   
    58   55   56 2   
    59   55   60 1   
    60   60   61 1   
    61   60   68 1   
    62   61   62 1   
    63   61   64 1   
    64   61   69 1   
    65   62   63 2   
    66   62   72 1   
    67   64   65 1   
    68   64   70 1   
    69   64   71 1   
    70   65   66 1   
    71   65   67 1   
    72   72   73 1   
    73   72   76 1   
    74   73   74 1   
    75   73   77 1   
    76   73   78 1   
    77   74   75 2   
    78   74   79 1   
    79   79   80 1   
    80   79   86 1   
    81   80   81 1   
    82   80   83 1   
    83   80   87 1   
    84   81   82 2   
    85   81   93 1   
    86   83   84 1   
    87   83   85 1   
    88   83   88 1   
    89   84   90 1   
    90   84   91 1   
    91   84   92 1   
    92   85   89 1   
    93   93   94 1   
    94   93  101 1   
    95   94   95 1   
    96   94   97 1   
    97   94  102 1   
    98   95   96 2   
    99   95  112 1   
   100   97   98 1   
   101   97   99 1   
   102   97  103 1   
   103   98  100 1   
   104   98  104 1   
   105   98  105 1   
   106   99  106 1   
   107   99  107 1   
   108   99  108 1   
   109  100  109 1   
   110  100  110 1   
   111  100  111 1   
   112  112  113 1   
   113  112  119 1   
   114  113  114 1   
   115  113  116 1   
   116  113  120 1   
   117  114  115 2   
   118  114  126 1   
   119  116  117 1   
   120  116  118 1   
   121  116  121 1   
   122  117  123 1   
   123  117  124 1   
   124  117  125 1   
   125  118  122 1   
   126  126  127 1   
   127  126  133 1   
   128  127  128 1   
   129  127  130 1   
   130  127  134 1   
   131  128  129 2   
   132  128  140 1   
   133  130  131 1   
   134  130  132 1   
   135  130  135 1   
   136  131  137 1   
   137  131  138 1   
   138  131  139 1   
   139  132  136 1   
   140  140  141 1   
   141  140  149 1   
   142  141  142 1   
   143  141  144 1   
   144  141  150 1   
   145  142  143 2   
   146  142  162 1   
   147  144  145 1   
   148  144  151 1   
   149  144  152 1   
   150  145  146 1   
   151  145  153 1   
   152  145  154 1   
   153  146  147 1   
   154  146  155 1   
   155  146  156 1   
   156  147  148 1   
   157  147  157 1   
   158  147  158 1   
   159  148  159 1   
   160  148  160 1   
   161  148  161 1   
   162  162  163 1   
   163  162  171 1   
   164  163  164 1   
   165  163  166 1   
   166  163  172 1   
   167  164  165 2   
   168  164  177 1   
   169  166  167 1   
   170  166  173 1   
   171  166  174 1   
   172  167  168 1   
   173  167  175 1   
   174  167  176 1   
   175  168  169 1   
   176  168  170 1   
   177  177  178 1   
   178  177  182 1   
   179  178  179 1   
   180  178  180 1   
   181  178  181 1   
   182  184  185 1   
   183  184  186 1   
   184  187  188 1   
   185  187  189 1   
@<TRIPOS>SUBSTRUCTURE
     1 MOL         1 TEMP              0 ****  ****    0 ROOT
