@<TRIPOS>MOLECULE
MOL
  175   173     1     0     0
SMALL
resp


@<TRIPOS>ATOM
      1 C1         -0.4670   -3.5390    5.7780 c3        1 MOL     -0.338921
      2 C2          0.0710   -3.4630    4.3210 c         1 MOL      0.730306
      3 O1         -0.6460   -3.6900    3.4080 o         1 MOL     -0.503977
      4 H1          0.1110   -2.8680    6.4120 hc        1 MOL      0.080598
      5 H2         -1.5150   -3.2420    5.7940 hc        1 MOL      0.080598
      6 H3         -0.3720   -4.5600    6.1480 hc        1 MOL      0.080598
      7 N1          1.3900   -3.1180    4.1510 n         1 MOL     -0.731329
      8 C3          2.0760   -3.0900    2.8810 c3        1 MOL      0.166345
      9 C4          2.0960   -4.4050    2.1340 c         1 MOL      0.600357
     10 O2          2.2080   -5.5050    2.7130 o         1 MOL     -0.596210
     11 C5          3.4790   -2.4600    3.1700 c3        1 MOL     -0.280412
     12 C6          4.0960   -2.1830    1.7760 c         1 MOL      0.579347
     13 O3          5.3150   -2.3350    1.5440 o         1 MOL     -0.634057
     14 O4          3.3210   -1.7420    0.9230 o         1 MOL     -0.634057
     15 H4          1.9720   -3.1000    4.9740 hn        1 MOL      0.348598
     16 H5          1.4980   -2.4500    2.2150 h1        1 MOL      0.025808
     17 H6          4.1220   -3.0890    3.8020 hc        1 MOL      0.070890
     18 H7          3.4520   -1.5130    3.7100 hc        1 MOL      0.070890
     19 N2          2.1290   -4.3240    0.8030 n         1 MOL     -0.346933
     20 C7          1.9720   -5.4310   -0.1700 c3        1 MOL     -0.093591
     21 C8          2.8000   -5.2330   -1.4290 c         1 MOL      0.561353
     22 O5          2.8010   -6.0070   -2.3710 o         1 MOL     -0.581491
     23 C9          0.5500   -5.3380   -0.6060 c3        1 MOL     -0.070990
     24 H8          1.9850   -3.3960    0.4370 hn        1 MOL      0.393627
     25 H9          2.0260   -6.3960    0.3230 h1        1 MOL      0.110253
     26 H10         0.2860   -4.3840   -1.0680 hc        1 MOL      0.027105
     27 H11         0.3160   -6.1220   -1.3250 hc        1 MOL      0.027105
     28 H12        -0.0590   -5.5650    0.2720 hc        1 MOL      0.027105
     29 N3          3.6430   -4.2400   -1.4160 n         1 MOL     -0.407671
     30 C10         4.5150   -3.8580   -2.5690 c3        1 MOL      0.219111
     31 C11         5.9400   -3.4110   -2.2690 c         1 MOL      0.376008
     32 O6          6.8100   -3.5870   -3.1140 o         1 MOL     -0.558024
     33 C12         3.7130   -2.7810   -3.3730 c3        1 MOL     -0.110009
     34 C13         3.2100   -1.5970   -2.5840 c         1 MOL      0.667510
     35 O7          2.0900   -1.0320   -2.9560 o         1 MOL     -0.689613
     36 O8          3.9190   -1.1470   -1.6360 o         1 MOL     -0.689613
     37 H13         3.6590   -3.7260   -0.5480 hn        1 MOL      0.134618
     38 H14         4.6410   -4.6980   -3.2420 h1        1 MOL      0.032499
     39 H15         2.8130   -3.2770   -3.7470 hc        1 MOL      0.027326
     40 H16         4.3000   -2.4510   -4.2170 hc        1 MOL      0.027326
     41 N4          6.1570   -2.7350   -1.1410 n         1 MOL     -0.171409
     42 C14         7.4630   -2.0920   -0.7670 c3        1 MOL     -0.192165
     43 C15         7.5600   -0.5400   -1.0760 c         1 MOL      0.536781
     44 O9          8.6390    0.0410   -1.0980 o         1 MOL     -0.630220
     45 H17         5.4020   -2.4940   -0.5170 hn        1 MOL      0.182168
     46 H18         8.2660   -2.4520   -1.4060 h1        1 MOL      0.104992
     47 H19         7.6870   -2.3000    0.2790 h1        1 MOL      0.104992
     48 N5          6.4410    0.0940   -1.3730 n         1 MOL     -0.068063
     49 C16         6.3350    1.5070   -1.9130 c3        1 MOL     -0.159982
     50 C17         6.1880    2.6850   -0.9900 c         1 MOL      0.412440
     51 O10         6.0430    3.8310   -1.3700 o         1 MOL     -0.459436
     52 C18         5.2740    1.5920   -3.0090 c3        1 MOL     -0.268030
     53 C19         3.8350    2.0010   -2.5530 c         1 MOL      0.502992
     54 N6          2.9690    1.9950   -3.5730 n         1 MOL     -0.661313
     55 O11         3.4490    2.2020   -1.4030 o         1 MOL     -0.298466
     56 H20         5.6050   -0.4510   -1.2240 hn        1 MOL      0.080168
     57 H21         7.2660    1.8340   -2.3730 h1        1 MOL      0.163298
     58 H22         5.2560    0.6740   -3.6000 hc        1 MOL      0.101277
     59 H23         5.6540    2.3460   -3.7000 hc        1 MOL      0.101277
     60 H24         3.2130    1.6350   -4.4740 hn        1 MOL      0.344399
     61 H25         1.9890    2.0700   -3.3380 hn        1 MOL      0.344399
     62 N7          6.2270    2.4910    0.3550 n         1 MOL     -0.200072
     63 C20         6.3270    3.5370    1.4050 c3        1 MOL     -0.170202
     64 C21         5.0930    4.4820    1.5950 c         1 MOL      0.526376
     65 O12         5.0330    5.4280    2.3980 o         1 MOL     -0.583947
     66 H26         6.3340    1.5490    0.6730 hn        1 MOL      0.211227
     67 H27         7.2080    4.1650    1.2790 h1        1 MOL      0.091156
     68 H28         6.4020    2.9980    2.3500 h1        1 MOL      0.091156
     69 N8          3.9110    4.0790    1.0080 n         1 MOL      0.074421
     70 C22         2.5800    4.7980    1.1680 c3        1 MOL     -0.440474
     71 C23         1.4130    3.7940    1.1930 c         1 MOL      0.701681
     72 O13         1.5130    2.8320    0.4590 o         1 MOL     -0.453850
     73 C24         2.2590    5.7080   -0.0410 c3        1 MOL      0.448477
     74 C25         3.1190    6.9730    0.0330 c3        1 MOL     -0.450680
     75 O14         2.5250    5.1690   -1.2820 oh        1 MOL     -0.499335
     76 H29         3.9660    3.2360    0.4390 hn        1 MOL     -0.180416
     77 H30         2.5460    5.3420    2.1170 h1        1 MOL      0.160540
     78 H31         1.2090    5.9740   -0.1360 h1        1 MOL     -0.005838
     79 H32         2.2220    4.2650   -1.1370 ho        1 MOL      0.282564
     80 H33         3.1510    7.3780    1.0480 hc        1 MOL      0.107530
     81 H34         4.1250    6.8980   -0.3640 hc        1 MOL      0.107530
     82 H35         2.6880    7.7620   -0.5900 hc        1 MOL      0.107530
     83 N9          0.3700    3.9850    2.0050 n         1 MOL     -0.613785
     84 C26        -0.8570    3.1530    1.8810 c3        1 MOL      0.040214
     85 C27        -1.4400    3.3080    0.4850 c         1 MOL      0.429817
     86 O15        -1.6820    4.4120    0.0220 o         1 MOL     -0.554686
     87 C28        -1.9080    3.3990    2.9610 c3        1 MOL      0.297378
     88 C29        -1.2750    2.7740    4.2650 c3        1 MOL      0.008983
     89 C30        -3.2730    2.7930    2.7080 c3        1 MOL     -0.465975
     90 C31        -1.9250    3.3490    5.5140 c3        1 MOL     -0.037100
     91 H36         0.3240    4.8710    2.4900 hn        1 MOL      0.304153
     92 H37        -0.5430    2.1170    2.0140 h1        1 MOL     -0.049347
     93 H38        -2.0170    4.4830    2.9750 hc        1 MOL     -0.021340
     94 H39        -0.2130    3.0320    4.3050 hc        1 MOL      0.001473
     95 H40        -1.3530    1.6910    4.2510 hc        1 MOL      0.001473
     96 H41        -3.1510    1.8500    2.1630 hc        1 MOL      0.103777
     97 H42        -3.8350    2.5440    3.6060 hc        1 MOL      0.103777
     98 H43        -3.8080    3.4400    2.0200 hc        1 MOL      0.103777
     99 H44        -1.3950    3.0650    6.4290 hc        1 MOL     -0.005739
    100 H45        -1.8290    4.4310    5.4370 hc        1 MOL     -0.005739
    101 H46        -2.9850    3.1220    5.6020 hc        1 MOL     -0.005739
    102 N10        -1.7320    2.2010   -0.1800 n         1 MOL     -0.153316
    103 C32        -2.5320    2.0790   -1.3860 c3        1 MOL     -0.105374
    104 C33        -3.9440    1.4280   -1.0610 c         1 MOL      0.564964
    105 O16        -4.1300    0.8360    0.0010 o         1 MOL     -0.472878
    106 C34        -1.7030    1.2240   -2.3840 c3        1 MOL     -0.240817
    107 C35        -0.3360    1.8730   -2.7560 c         1 MOL      0.746000
    108 O17         0.6740    1.5090   -2.0810 o         1 MOL     -0.688616
    109 O18        -0.0970    2.4690   -3.8420 o         1 MOL     -0.688616
    110 H47        -1.5450    1.3080    0.2520 hn        1 MOL      0.310913
    111 H48        -2.7420    3.1010   -1.7040 h1        1 MOL      0.077301
    112 H49        -2.3140    1.1150   -3.2790 hc        1 MOL      0.057976
    113 H50        -1.5130    0.2960   -1.8600 hc        1 MOL      0.057976
    114 N11        -4.9190    1.4950   -1.9400 n         1 MOL     -0.642031
    115 C36        -6.3200    1.2080   -1.5890 c3        1 MOL      0.300026
    116 C37        -6.5400   -0.2450   -1.1210 c         1 MOL      0.402786
    117 O19        -7.1670   -0.2970   -0.0720 o         1 MOL     -0.510014
    118 C38        -7.2560    1.4100   -2.7300 c3        1 MOL     -0.093715
    119 C39        -8.7900    1.4340   -2.4740 ca        1 MOL      0.069681
    120 C40        -9.1790    2.1750   -1.3500 ca        1 MOL     -0.185746
    121 C41        -9.7500    0.6950   -3.2200 ca        1 MOL     -0.185746
    122 C42       -10.5110    2.1130   -0.8170 ca        1 MOL     -0.120299
    123 C43       -11.1570    0.7490   -2.7910 ca        1 MOL     -0.120299
    124 C44       -11.4980    1.3510   -1.5500 ca        1 MOL     -0.073946
    125 H51        -4.7850    1.9590   -2.8300 hn        1 MOL      0.340017
    126 H52        -6.6280    1.8700   -0.7850 h1        1 MOL      0.054474
    127 H53        -7.0510    0.6760   -3.5040 hc        1 MOL      0.025079
    128 H54        -6.9560    2.3400   -3.2080 hc        1 MOL      0.025079
    129 H55        -8.4830    2.7280   -0.7290 ha        1 MOL      0.132675
    130 H56        -9.4180    0.1270   -4.0710 ha        1 MOL      0.132675
    131 H57       -10.8320    2.8060   -0.0540 ha        1 MOL      0.115019
    132 H58       -11.8580    0.1700   -3.3700 ha        1 MOL      0.115019
    133 H59       -12.5480    1.3960   -1.2890 ha        1 MOL      0.085773
    134 N12        -6.0610   -1.3470   -1.7640 n         1 MOL     -0.157573
    135 C45        -6.2570   -2.6920   -1.1630 c3        1 MOL     -0.019744
    136 C46        -5.5710   -2.9140    0.1520 c         1 MOL      0.270271
    137 O20        -5.9400   -3.8230    0.9030 o         1 MOL     -0.510904
    138 C47        -5.9050   -3.6400   -2.2620 c3        1 MOL     -0.106767
    139 C48        -4.8260   -2.9010   -3.0470 c3        1 MOL      0.007517
    140 C49        -5.2580   -1.4610   -2.9710 c3        1 MOL     -0.027652
    141 H60        -7.3250   -2.8410   -1.0390 h1        1 MOL      0.086596
    142 H61        -5.5020   -4.6030   -1.9470 hc        1 MOL      0.059384
    143 H62        -6.7640   -3.7740   -2.9120 hc        1 MOL      0.059384
    144 H63        -3.8510   -3.1080   -2.6010 hc        1 MOL      0.026843
    145 H64        -4.8520   -3.2070   -4.0890 hc        1 MOL      0.026843
    146 H65        -4.3850   -0.8060   -2.9170 h1        1 MOL      0.037154
    147 H66        -5.8440   -1.1580   -3.8340 h1        1 MOL      0.037154
    148 N13        -4.5640   -2.1480    0.5020 n         1 MOL      0.069815
    149 C50        -3.9090   -2.1500    1.8440 c3        1 MOL     -0.362003
    150 C51        -4.8420   -1.4840    2.8600 c         1 MOL      0.585958
    151 O21        -5.0770   -1.9890    3.9190 o         1 MOL     -0.548974
    152 C52        -2.5110   -1.4720    1.8190 c3        1 MOL     -0.007228
    153 C53        -1.5780   -2.2170    0.8590 c3        1 MOL      0.003015
    154 C54        -0.4480   -1.3320    0.3920 c         1 MOL      0.571167
    155 O22         0.3990   -1.7740   -0.4640 o         1 MOL     -0.667159
    156 O23        -0.3470   -0.1340    0.7390 o         1 MOL     -0.667159
    157 H67        -4.2540   -1.4890   -0.1990 hn        1 MOL      0.217523
    158 H68        -3.7600   -3.1940    2.0870 h1        1 MOL      0.155803
    159 H69        -2.0910   -1.5290    2.8260 hc        1 MOL      0.020494
    160 H70        -2.5230   -0.3900    1.6280 hc        1 MOL      0.020494
    161 H71        -2.0890   -2.6030   -0.0230 hc        1 MOL      0.007975
    162 H72        -1.0830   -3.0570    1.3410 hc        1 MOL      0.007975
    163 N14        -5.4410   -0.3250    2.4920 n         1 MOL     -0.143567
    164 C55        -6.3220    0.3920    3.4120 c3        1 MOL     -0.293189
    165 H73        -5.7460    0.7380    4.2700 h1        1 MOL      0.104310
    166 H74        -6.7620    1.2490    2.9020 h1        1 MOL      0.104310
    167 H75        -7.1130   -0.2750    3.7520 h1        1 MOL      0.104310
    168 H76        -5.2140    0.0270    1.5740 hn        1 MOL      0.139867
    169 Ca1         2.0990    0.2900   -0.3450 Ca        1 MOL      1.604934
    170 O24         1.4740    0.5010    2.6830 oh        1 MOL     -0.764632
    171 H77         0.5840    0.3700    2.3550 ho        1 MOL      0.387709
    172 H78         1.3730    0.4810    3.6320 ho        1 MOL      0.387709
    173 O25         3.7100    1.1720    1.6030 oh        1 MOL     -0.764632
    174 H79         4.5650    0.7650    1.7270 ho        1 MOL      0.387709
    175 H80         3.1290    0.7070    2.2050 ho        1 MOL      0.387709
@<TRIPOS>BOND
     1    1    2 1   
     2    1    4 1   
     3    1    5 1   
     4    1    6 1   
     5    2    3 2   
     6    2    7 1   
     7    7    8 1   
     8    7   15 1   
     9    8    9 1   
    10    8   11 1   
    11    8   16 1   
    12    9   10 2   
    13    9   19 1   
    14   11   12 1   
    15   11   17 1   
    16   11   18 1   
    17   12   13 1   
    18   12   14 1   
    19   19   20 1   
    20   19   24 1   
    21   20   21 1   
    22   20   23 1   
    23   20   25 1   
    24   21   22 2   
    25   21   29 1   
    26   23   26 1   
    27   23   27 1   
    28   23   28 1   
    29   29   30 1   
    30   29   37 1   
    31   30   31 1   
    32   30   33 1   
    33   30   38 1   
    34   31   32 2   
    35   31   41 1   
    36   33   34 1   
    37   33   39 1   
    38   33   40 1   
    39   34   35 1   
    40   34   36 1   
    41   41   42 1   
    42   41   45 1   
    43   42   43 1   
    44   42   46 1   
    45   42   47 1   
    46   43   44 2   
    47   43   48 1   
    48   48   49 1   
    49   48   56 1   
    50   49   50 1   
    51   49   52 1   
    52   49   57 1   
    53   50   51 2   
    54   50   62 1   
    55   52   53 1   
    56   52   58 1   
    57   52   59 1   
    58   53   54 1   
    59   53   55 2   
    60   54   60 1   
    61   54   61 1   
    62   62   63 1   
    63   62   66 1   
    64   63   64 1   
    65   63   67 1   
    66   63   68 1   
    67   64   65 2   
    68   64   69 1   
    69   69   70 1   
    70   69   76 1   
    71   70   71 1   
    72   70   73 1   
    73   70   77 1   
    74   71   72 2   
    75   71   83 1   
    76   73   74 1   
    77   73   75 1   
    78   73   78 1   
    79   74   80 1   
    80   74   81 1   
    81   74   82 1   
    82   75   79 1   
    83   83   84 1   
    84   83   91 1   
    85   84   85 1   
    86   84   87 1   
    87   84   92 1   
    88   85   86 2   
    89   85  102 1   
    90   87   88 1   
    91   87   89 1   
    92   87   93 1   
    93   88   90 1   
    94   88   94 1   
    95   88   95 1   
    96   89   96 1   
    97   89   97 1   
    98   89   98 1   
    99   90   99 1   
   100   90  100 1   
   101   90  101 1   
   102  102  103 1   
   103  102  110 1   
   104  103  104 1   
   105  103  106 1   
   106  103  111 1   
   107  104  105 2   
   108  104  114 1   
   109  106  107 1   
   110  106  112 1   
   111  106  113 1   
   112  107  108 1   
   113  107  109 1   
   114  114  115 1   
   115  114  125 1   
   116  115  116 1   
   117  115  118 1   
   118  115  126 1   
   119  116  117 2   
   120  116  134 1   
   121  118  119 1   
   122  118  127 1   
   123  118  128 1   
   124  119  120 ar  
   125  119  121 ar  
   126  120  122 ar  
   127  120  129 1   
   128  121  123 ar  
   129  121  130 1   
   130  122  124 ar  
   131  122  131 1   
   132  123  124 ar  
   133  123  132 1   
   134  124  133 1   
   135  134  135 1   
   136  134  140 1   
   137  135  136 1   
   138  135  138 1   
   139  135  141 1   
   140  136  137 2   
   141  136  148 1   
   142  138  139 1   
   143  138  142 1   
   144  138  143 1   
   145  139  140 1   
   146  139  144 1   
   147  139  145 1   
   148  140  146 1   
   149  140  147 1   
   150  148  149 1   
   151  148  157 1   
   152  149  150 1   
   153  149  152 1   
   154  149  158 1   
   155  150  151 2   
   156  150  163 1   
   157  152  153 1   
   158  152  159 1   
   159  152  160 1   
   160  153  154 1   
   161  153  161 1   
   162  153  162 1   
   163  154  155 1   
   164  154  156 1   
   165  163  164 1   
   166  163  168 1   
   167  164  165 1   
   168  164  166 1   
   169  164  167 1   
   170  170  171 1   
   171  170  172 1   
   172  173  174 1   
   173  173  175 1   
@<TRIPOS>SUBSTRUCTURE
     1 MOL         1 TEMP              0 ****  ****    0 ROOT
