@<TRIPOS>MOLECULE
MOL
  189   185     1     0     0
SMALL
resp


@<TRIPOS>ATOM
      1 C1         -0.1280    2.6060    5.9040 c3        1 MOL     -0.346995
      2 C2         -0.5960    2.4280    4.4910 c         1 MOL      0.796829
      3 O1          0.0750    2.8350    3.5300 o         1 MOL     -0.646282
      4 H1          0.8920    2.9920    5.9030 hc        1 MOL      0.089567
      5 H2         -0.7820    3.3100    6.4180 hc        1 MOL      0.089567
      6 H3         -0.1510    1.6450    6.4180 hc        1 MOL      0.089567
      7 N1         -1.8210    1.9090    4.2990 n         1 MOL     -0.633060
      8 C3         -2.3880    1.6630    2.9680 c3        1 MOL      0.126000
      9 C4         -2.7630    2.9790    2.2150 c         1 MOL      0.571033
     10 O2         -3.8410    3.5990    2.4930 o         1 MOL     -0.572191
     11 C5         -3.6250    0.7340    2.9920 c3        1 MOL     -0.063313
     12 C6         -4.0890    0.0930    1.6130 c         1 MOL      0.624876
     13 O3         -3.5140    0.3950    0.5410 o         1 MOL     -0.664955
     14 O4         -5.1150   -0.6010    1.6610 o         1 MOL     -0.664955
     15 H4         -2.3270    1.5730    5.0980 hn        1 MOL      0.325366
     16 H5         -1.6390    1.0820    2.4280 h1        1 MOL     -0.087743
     17 H6         -4.4600    1.2300    3.4880 hc        1 MOL      0.034960
     18 H7         -3.3090   -0.0840    3.6440 hc        1 MOL      0.034960
     19 N2         -2.0010    3.3970    1.2400 n         1 MOL     -0.261668
     20 C7         -1.9590    4.7410    0.5760 c3        1 MOL     -0.201499
     21 C8         -3.0160    4.9820   -0.4920 c         1 MOL      0.529080
     22 O5         -3.5050    6.0880   -0.6350 o         1 MOL     -0.591282
     23 C9         -0.5220    5.1580    0.1250 c3        1 MOL      0.209307
     24 C10        -0.3480    6.6620   -0.2160 c3        1 MOL     -0.169843
     25 C11         1.0400    7.2120   -0.0610 c3        1 MOL      0.009597
     26 C12         2.1910    6.4960   -0.7370 c3        1 MOL      0.179761
     27 N3          3.5010    7.0330   -0.3180 n4        1 MOL     -0.554766
     28 H8         -1.3260    2.7790    0.8110 hn        1 MOL      0.196315
     29 H9         -2.2110    5.4180    1.3910 h1        1 MOL      0.129921
     30 H10        -0.2520    4.5500   -0.7410 hc        1 MOL      0.003952
     31 H11         0.2660    4.9660    0.8620 hc        1 MOL      0.003952
     32 H12        -1.0860    7.2360    0.3540 hc        1 MOL      0.053287
     33 H13        -0.5910    6.6340   -1.2750 hc        1 MOL      0.053287
     34 H14         1.3570    7.1900    0.9900 hc        1 MOL      0.029769
     35 H15         1.1190    8.2560   -0.3970 hc        1 MOL      0.029769
     36 H16         2.1050    6.4340   -1.8190 hx        1 MOL      0.039047
     37 H17         2.2300    5.4480   -0.4100 hx        1 MOL      0.039047
     38 H18         3.6970    7.9890   -0.5910 hn        1 MOL      0.372692
     39 H19         3.7100    6.8800    0.6620 hn        1 MOL      0.372692
     40 H20         4.0990    6.3860   -0.8270 hn        1 MOL      0.372692
     41 N4         -3.5360    3.9300   -1.0340 n         1 MOL     -0.202791
     42 C13        -4.6060    3.9640   -2.0450 c3        1 MOL     -0.000319
     43 C14        -5.8120    3.2150   -1.5190 c         1 MOL      0.424535
     44 O6         -6.7720    2.9580   -2.2540 o         1 MOL     -0.528508
     45 C15        -4.0800    3.4820   -3.4650 c3        1 MOL     -0.326195
     46 C16        -3.3220    2.1460   -3.5420 c         1 MOL      0.735793
     47 O7         -3.2030    1.4400   -2.4960 o         1 MOL     -0.668550
     48 O8         -2.8390    1.7500   -4.6750 o         1 MOL     -0.668550
     49 H21        -3.0560    3.0590   -0.8760 hn        1 MOL      0.178459
     50 H22        -5.0620    4.9570   -2.0660 h1        1 MOL      0.103331
     51 H23        -3.4090    4.2460   -3.8700 hc        1 MOL      0.095682
     52 H24        -4.9380    3.4340   -4.1330 hc        1 MOL      0.095682
     53 N5         -5.7890    2.6820   -0.3060 n         1 MOL     -0.117182
     54 C17        -6.9120    1.9360    0.3040 c3        1 MOL     -0.350716
     55 C18        -7.3750    0.6680   -0.3850 c         1 MOL      0.580352
     56 O9         -8.5860    0.3610   -0.3200 o         1 MOL     -0.586525
     57 H25        -5.0480    2.9760    0.3180 hn        1 MOL      0.175838
     58 H26        -7.7770    2.5900    0.2040 h1        1 MOL      0.142375
     59 H27        -6.7650    1.5290    1.3000 h1        1 MOL      0.142375
     60 N6         -6.4570   -0.0780   -1.0070 n         1 MOL     -0.199746
     61 C19        -6.9690   -1.3030   -1.7340 c3        1 MOL     -0.025759
     62 C20        -7.1170   -2.5750   -0.8270 c         1 MOL      0.395137
     63 O10        -7.6450   -3.5720   -1.3360 o         1 MOL     -0.522602
     64 C21        -6.0690   -1.5530   -2.9610 c3        1 MOL     -0.260713
     65 C22        -4.5490   -1.6810   -2.6960 c         1 MOL      0.689889
     66 O11        -4.1130   -2.1770   -1.6070 o         1 MOL     -0.665532
     67 O12        -3.7420   -1.3880   -3.5940 o         1 MOL     -0.665532
     68 H28        -5.5040    0.2350   -0.9030 hn        1 MOL      0.177006
     69 H29        -7.9540   -1.0930   -2.1620 h1        1 MOL      0.126366
     70 H30        -6.1830   -0.6890   -3.6100 hc        1 MOL      0.093537
     71 H31        -6.4290   -2.4420   -3.4930 hc        1 MOL      0.093537
     72 N7         -6.6110   -2.5030    0.3670 n         1 MOL     -0.212154
     73 C23        -6.5410   -3.6460    1.3600 c3        1 MOL     -0.163875
     74 C24        -5.2150   -4.3630    1.5140 c         1 MOL      0.574767
     75 O13        -5.0480   -5.2880    2.2570 o         1 MOL     -0.597307
     76 H32        -6.1900   -1.6800    0.7600 hn        1 MOL      0.261428
     77 H33        -7.2650   -4.4510    1.1970 h1        1 MOL      0.099832
     78 H34        -6.7760   -3.1980    2.3240 h1        1 MOL      0.099832
     79 N8         -4.2020   -3.9500    0.7600 n         1 MOL     -0.168539
     80 C25        -2.9230   -4.5640    0.6090 c3        1 MOL     -0.286761
     81 C26        -1.6890   -3.6040    0.6950 c         1 MOL      0.740425
     82 O14        -1.8160   -2.4860    0.2380 o         1 MOL     -0.642773
     83 C27        -2.9330   -5.3820   -0.7310 c3        1 MOL      0.570511
     84 C28        -3.6450   -6.7600   -0.5440 c3        1 MOL     -0.228507
     85 O15        -3.5180   -4.8150   -1.8510 oh        1 MOL     -0.683082
     86 H35        -4.3950   -3.1440    0.1860 hn        1 MOL      0.124188
     87 H36        -2.7430   -5.2350    1.4540 h1        1 MOL      0.106182
     88 H37        -1.8790   -5.5890   -0.9110 h1        1 MOL     -0.104630
     89 H38        -3.6390   -3.8810   -1.6600 ho        1 MOL      0.472774
     90 H39        -3.2320   -7.1070    0.4040 hc        1 MOL      0.043282
     91 H40        -4.6960   -6.5430   -0.3980 hc        1 MOL      0.043282
     92 H41        -3.4630   -7.5560   -1.2640 hc        1 MOL      0.043282
     93 N9         -0.6120   -4.0560    1.2660 n         1 MOL     -0.656711
     94 C29         0.4950   -3.1210    1.5680 c3        1 MOL      0.203058
     95 C30         1.8510   -3.6230    0.9850 c         1 MOL      0.535323
     96 O16         2.2890   -4.7440    1.3010 o         1 MOL     -0.542822
     97 C31         0.7010   -2.7310    3.0340 c3        1 MOL      0.105912
     98 C32        -0.5260   -1.8380    3.5860 c3        1 MOL      0.125679
     99 C33         2.0450   -2.1180    3.5130 c3        1 MOL     -0.429297
    100 C34        -0.9170   -1.8640    5.0800 c3        1 MOL     -0.214046
    101 H42        -0.7290   -4.9020    1.8010 hn        1 MOL      0.336606
    102 H43         0.3720   -2.1700    1.0720 h1        1 MOL     -0.103313
    103 H44         0.6300   -3.7140    3.5130 hc        1 MOL     -0.002320
    104 H45        -1.4320   -2.0590    3.0090 hc        1 MOL      0.015574
    105 H46        -0.2520   -0.7960    3.3810 hc        1 MOL      0.015574
    106 H47         2.0730   -1.9250    4.5810 hc        1 MOL      0.097388
    107 H48         2.7940   -2.8750    3.3050 hc        1 MOL      0.097388
    108 H49         2.1410   -1.1480    3.0090 hc        1 MOL      0.097388
    109 H50        -0.0550   -1.5490    5.6700 hc        1 MOL      0.041199
    110 H51        -1.7810   -1.2530    5.3690 hc        1 MOL      0.041199
    111 H52        -1.1700   -2.9150    5.1980 hc        1 MOL      0.041199
    112 N10         2.4880   -2.7020    0.1760 n         1 MOL     -0.214087
    113 C35         3.7090   -2.8530   -0.5000 c3        1 MOL     -0.191445
    114 C36         4.9320   -2.3670    0.3310 c         1 MOL      0.494793
    115 O17         4.7270   -1.5860    1.2700 o         1 MOL     -0.466324
    116 C37         3.6100   -2.1760   -1.8600 c3        1 MOL      0.200329
    117 C38         2.2740   -2.4720   -2.5770 c3        1 MOL     -0.322508
    118 O18         3.7220   -0.7940   -1.6650 oh        1 MOL     -0.424750
    119 H53         2.0310   -1.8160    0.0310 hn        1 MOL      0.295282
    120 H54         3.7760   -3.9250   -0.6580 h1        1 MOL      0.097767
    121 H55         4.4130   -2.3820   -2.5670 h1        1 MOL      0.011188
    122 H56         3.2300   -0.4020   -2.3930 ho        1 MOL      0.368891
    123 H57         2.5180   -2.2700   -3.6180 hc        1 MOL      0.091512
    124 H58         1.9660   -3.5190   -2.5410 hc        1 MOL      0.091512
    125 H59         1.5260   -1.7530   -2.2350 hc        1 MOL      0.091512
    126 N11         6.1690   -2.8110   -0.0350 n         1 MOL     -0.268103
    127 C39         7.4250   -2.3660    0.5760 c3        1 MOL     -0.134993
    128 C40         7.6240   -0.8910    0.4340 c         1 MOL      0.305552
    129 O19         8.2840   -0.3050    1.2700 o         1 MOL     -0.492436
    130 C41         8.6710   -3.0840   -0.0080 c3        1 MOL      0.346196
    131 C42         8.6130   -4.5890    0.0620 c3        1 MOL     -0.404811
    132 O20         8.7760   -2.6520   -1.3050 oh        1 MOL     -0.626854
    133 H60         6.2420   -3.5830   -0.6790 hn        1 MOL      0.216657
    134 H61         7.4040   -2.6180    1.6340 h1        1 MOL      0.140116
    135 H62         9.5620   -2.8300    0.5660 h1        1 MOL      0.026588
    136 H63         9.4170   -3.2080   -1.7600 ho        1 MOL      0.398115
    137 H64         8.6160   -4.8260    1.1330 hc        1 MOL      0.117007
    138 H65         7.6540   -5.0050   -0.2290 hc        1 MOL      0.117007
    139 H66         9.3890   -5.1080   -0.4980 hc        1 MOL      0.117007
    140 N12         6.9480   -0.2650   -0.5490 n         1 MOL      0.153274
    141 C43         6.7640    1.2260   -0.6390 c3        1 MOL     -0.018205
    142 C44         5.8780    1.7870    0.4450 c         1 MOL      0.341898
    143 O21         6.1890    2.7650    1.0960 o         1 MOL     -0.525431
    144 C45         6.3940    1.5110   -2.1430 c3        1 MOL     -0.124923
    145 C46         6.9410    0.7310   -3.2950 c3        1 MOL     -0.182136
    146 C47         8.4330    0.8580   -3.3300 c3        1 MOL      0.238827
    147 C48         8.8710    0.1160   -4.6000 c3        1 MOL     -0.023439
    148 N13        10.2440    0.4260   -4.9800 n4        1 MOL     -0.200134
    149 H67         6.3550   -0.8920   -1.0770 hn        1 MOL      0.038875
    150 H68         7.7510    1.6750   -0.5090 h1        1 MOL      0.037408
    151 H69         6.5090    2.5810   -2.3140 hc        1 MOL      0.067193
    152 H70         5.3040    1.4530   -2.2030 hc        1 MOL      0.067193
    153 H71         6.4960    1.1180   -4.2230 hc        1 MOL      0.041445
    154 H72         6.7580   -0.3370   -3.2020 hc        1 MOL      0.041445
    155 H73         8.8520    0.3220   -2.4800 hc        1 MOL     -0.038343
    156 H74         8.7570    1.8930   -3.3680 hc        1 MOL     -0.038343
    157 H75         8.2850    0.5620   -5.4100 hx        1 MOL      0.083255
    158 H76         8.6830   -0.9560   -4.5250 hx        1 MOL      0.083255
    159 H77        10.8530    0.3730   -4.1750 hn        1 MOL      0.244479
    160 H78        10.5000   -0.2020   -5.7230 hn        1 MOL      0.244479
    161 H79        10.4550    1.3860   -5.2470 hn        1 MOL      0.244479
    162 N14         4.7510    1.1580    0.7260 n         1 MOL      0.039279
    163 C49         3.6440    1.7650    1.4870 c3        1 MOL     -0.312222
    164 C50         3.9420    1.6930    3.0060 c         1 MOL      0.476123
    165 O22         3.4780    2.6090    3.7300 o         1 MOL     -0.536831
    166 C51         2.3370    1.0270    1.2360 c3        1 MOL      0.213563
    167 C52         1.7350    1.5870   -0.0990 c3        1 MOL      0.041125
    168 C53         0.4810    0.8570   -0.4700 c         1 MOL      0.725399
    169 O23        -0.5180    1.5110   -0.7990 o         1 MOL     -0.711834
    170 O24         0.4430   -0.3940   -0.5860 o         1 MOL     -0.711834
    171 H80         4.6070    0.3440    0.1340 hn        1 MOL     -0.027757
    172 H81         3.4520    2.7940    1.2130 h1        1 MOL      0.151444
    173 H82         1.6070    1.2240    2.0100 hc        1 MOL      0.020635
    174 H83         2.4640   -0.0490    1.1050 hc        1 MOL      0.020635
    175 H84         2.4420    1.4720   -0.9270 hc        1 MOL     -0.092682
    176 H85         1.4970    2.6520   -0.0220 hc        1 MOL     -0.092682
    177 N15         4.7980    0.7140    3.3870 n         1 MOL     -0.164253
    178 C54         5.5610    0.6960    4.7150 c3        1 MOL     -0.328525
    179 H86         6.6320    0.7380    4.5170 h1        1 MOL      0.132103
    180 H87         5.2690    1.5580    5.3140 h1        1 MOL      0.132103
    181 H88         5.3270   -0.2200    5.2560 h1        1 MOL      0.132103
    182 H89         5.1370    0.1140    2.6600 hn        1 MOL      0.228638
    183 Ca1        -2.0460   -0.5040   -1.4500 Ca        1 MOL      1.722860
    184 O25        -1.0700   -2.4990   -3.1170 oh        1 MOL     -0.817924
    185 H90        -1.7770   -3.0830   -3.3940 ho        1 MOL      0.378761
    186 H91        -0.6630   -2.2170   -3.9320 ho        1 MOL      0.378761
    187 O26        -0.9230    0.2970   -3.7460 oh        1 MOL     -0.817924
    188 H92        -0.2050    0.0130   -4.3090 ho        1 MOL      0.378761
    189 H93        -1.6800    0.3660   -4.3270 ho        1 MOL      0.378761
@<TRIPOS>BOND
     1    1    2 1   
     2    1    4 1   
     3    1    5 1   
     4    1    6 1   
     5    2    3 2   
     6    2    7 1   
     7    7    8 1   
     8    7   15 1   
     9    8    9 1   
    10    8   11 1   
    11    8   16 1   
    12    9   10 2   
    13    9   19 1   
    14   11   12 1   
    15   11   17 1   
    16   11   18 1   
    17   12   13 1   
    18   12   14 1   
    19   19   20 1   
    20   19   28 1   
    21   20   21 1   
    22   20   23 1   
    23   20   29 1   
    24   21   22 2   
    25   21   41 1   
    26   23   24 1   
    27   23   30 1   
    28   23   31 1   
    29   24   25 1   
    30   24   32 1   
    31   24   33 1   
    32   25   26 1   
    33   25   34 1   
    34   25   35 1   
    35   26   27 1   
    36   26   36 1   
    37   26   37 1   
    38   27   38 1   
    39   27   39 1   
    40   27   40 1   
    41   41   42 1   
    42   41   49 1   
    43   42   43 1   
    44   42   45 1   
    45   42   50 1   
    46   43   44 2   
    47   43   53 1   
    48   45   46 1   
    49   45   51 1   
    50   45   52 1   
    51   46   47 1   
    52   46   48 1   
    53   53   54 1   
    54   53   57 1   
    55   54   55 1   
    56   54   58 1   
    57   54   59 1   
    58   55   56 2   
    59   55   60 1   
    60   60   61 1   
    61   60   68 1   
    62   61   62 1   
    63   61   64 1   
    64   61   69 1   
    65   62   63 2   
    66   62   72 1   
    67   64   65 1   
    68   64   70 1   
    69   64   71 1   
    70   65   66 1   
    71   65   67 1   
    72   72   73 1   
    73   72   76 1   
    74   73   74 1   
    75   73   77 1   
    76   73   78 1   
    77   74   75 2   
    78   74   79 1   
    79   79   80 1   
    80   79   86 1   
    81   80   81 1   
    82   80   83 1   
    83   80   87 1   
    84   81   82 2   
    85   81   93 1   
    86   83   84 1   
    87   83   85 1   
    88   83   88 1   
    89   84   90 1   
    90   84   91 1   
    91   84   92 1   
    92   85   89 1   
    93   93   94 1   
    94   93  101 1   
    95   94   95 1   
    96   94   97 1   
    97   94  102 1   
    98   95   96 2   
    99   95  112 1   
   100   97   98 1   
   101   97   99 1   
   102   97  103 1   
   103   98  100 1   
   104   98  104 1   
   105   98  105 1   
   106   99  106 1   
   107   99  107 1   
   108   99  108 1   
   109  100  109 1   
   110  100  110 1   
   111  100  111 1   
   112  112  113 1   
   113  112  119 1   
   114  113  114 1   
   115  113  116 1   
   116  113  120 1   
   117  114  115 2   
   118  114  126 1   
   119  116  117 1   
   120  116  118 1   
   121  116  121 1   
   122  117  123 1   
   123  117  124 1   
   124  117  125 1   
   125  118  122 1   
   126  126  127 1   
   127  126  133 1   
   128  127  128 1   
   129  127  130 1   
   130  127  134 1   
   131  128  129 2   
   132  128  140 1   
   133  130  131 1   
   134  130  132 1   
   135  130  135 1   
   136  131  137 1   
   137  131  138 1   
   138  131  139 1   
   139  132  136 1   
   140  140  141 1   
   141  140  149 1   
   142  141  142 1   
   143  141  144 1   
   144  141  150 1   
   145  142  143 2   
   146  142  162 1   
   147  144  145 1   
   148  144  151 1   
   149  144  152 1   
   150  145  146 1   
   151  145  153 1   
   152  145  154 1   
   153  146  147 1   
   154  146  155 1   
   155  146  156 1   
   156  147  148 1   
   157  147  157 1   
   158  147  158 1   
   159  148  159 1   
   160  148  160 1   
   161  148  161 1   
   162  162  163 1   
   163  162  171 1   
   164  163  164 1   
   165  163  166 1   
   166  163  172 1   
   167  164  165 2   
   168  164  177 1   
   169  166  167 1   
   170  166  173 1   
   171  166  174 1   
   172  167  168 1   
   173  167  175 1   
   174  167  176 1   
   175  168  169 1   
   176  168  170 1   
   177  177  178 1   
   178  177  182 1   
   179  178  179 1   
   180  178  180 1   
   181  178  181 1   
   182  184  185 1   
   183  184  186 1   
   184  187  188 1   
   185  187  189 1   
@<TRIPOS>SUBSTRUCTURE
     1 MOL         1 TEMP              0 ****  ****    0 ROOT
