@<TRIPOS>MOLECULE
MOL
  175   173     1     0     0
SMALL
resp


@<TRIPOS>ATOM
      1 C1          0.7350    4.3290    5.2430 c3        1 MOL     -0.496891
      2 C2          0.0320    4.1270    3.9020 c         1 MOL      0.690287
      3 O1          0.6450    4.0930    2.8520 o         1 MOL     -0.564005
      4 H1          1.2520    3.4120    5.5230 hc        1 MOL      0.126091
      5 H2          1.4560    5.1410    5.1560 hc        1 MOL      0.126091
      6 H3         -0.0030    4.5780    6.0060 hc        1 MOL      0.126091
      7 N1         -1.2830    4.0780    3.7950 n         1 MOL     -0.532334
      8 C3         -2.1180    3.5660    2.6430 c3        1 MOL      0.036915
      9 C4         -2.2960    4.7020    1.6040 c         1 MOL      0.618942
     10 O2         -2.8420    5.7010    2.0630 o         1 MOL     -0.600000
     11 C5         -3.5000    3.1020    3.0150 c3        1 MOL     -0.519889
     12 C6         -4.1910    2.3200    1.9440 c         1 MOL      0.851071
     13 O3         -5.2050    1.6720    2.2790 o         1 MOL     -0.672375
     14 O4         -3.6910    2.0700    0.7900 o         1 MOL     -0.672375
     15 H4         -1.8720    4.4080    4.5510 hn        1 MOL      0.306496
     16 H5         -1.4990    2.7830    2.2150 h1        1 MOL      0.143271
     17 H6         -4.0130    3.9760    3.4110 hc        1 MOL      0.126236
     18 H7         -3.4560    2.4500    3.8860 hc        1 MOL      0.126236
     19 N2         -1.8350    4.5070    0.3490 n         1 MOL     -0.403007
     20 C7         -2.1050    5.4800   -0.7590 c3        1 MOL      0.257453
     21 C8         -3.2350    5.0640   -1.6740 c         1 MOL      0.502663
     22 O5         -3.4620    5.7560   -2.6540 o         1 MOL     -0.558842
     23 C9         -0.7920    5.5420   -1.5170 c3        1 MOL     -0.489774
     24 H8         -1.2930    3.6870    0.1400 hn        1 MOL      0.242915
     25 H9         -2.2950    6.4500   -0.2990 h1        1 MOL      0.024453
     26 H10        -0.9310    6.0630   -2.4610 hc        1 MOL      0.137538
     27 H11        -0.1540    6.0710   -0.8030 hc        1 MOL      0.137538
     28 H12        -0.5630    4.4930   -1.7380 hc        1 MOL      0.137538
     29 N3         -3.9470    3.9040   -1.4760 n         1 MOL     -0.710668
     30 C10        -4.7930    3.4400   -2.6170 c3        1 MOL      0.506282
     31 C11        -5.9610    2.5910   -2.1290 c         1 MOL      0.243027
     32 O6         -6.9630    2.5370   -2.8030 o         1 MOL     -0.521106
     33 C12        -3.9890    2.6540   -3.6260 c3        1 MOL     -0.432889
     34 C13        -3.0590    1.6390   -3.0200 c         1 MOL      0.890122
     35 O7         -3.2340    1.0950   -1.9390 o         1 MOL     -0.730824
     36 O8         -1.9280    1.4730   -3.5940 o         1 MOL     -0.730824
     37 H13        -3.6490    3.1870   -0.8290 hn        1 MOL      0.454831
     38 H14        -5.2060    4.3140   -3.1160 h1        1 MOL      0.009246
     39 H15        -3.4290    3.3850   -4.1990 hc        1 MOL      0.075251
     40 H16        -4.6500    2.1040   -4.2890 hc        1 MOL      0.075251
     41 N4         -5.9440    2.1100   -0.8930 n         1 MOL     -0.032501
     42 C14        -7.0570    1.3480   -0.3790 c3        1 MOL     -0.025934
     43 C15        -7.3000    0.0180   -1.1040 c         1 MOL      0.267848
     44 O9         -8.4230   -0.3450   -1.4670 o         1 MOL     -0.533544
     45 H17        -5.0130    1.9270   -0.5380 hn        1 MOL     -0.216057
     46 H18        -7.9350    1.9880   -0.3490 h1        1 MOL      0.081526
     47 H19        -6.8700    1.2090    0.6820 h1        1 MOL      0.081526
     48 N5         -6.2310   -0.7320   -1.5060 n         1 MOL      0.051656
     49 C16        -6.3270   -2.0070   -2.1140 c3        1 MOL     -0.115100
     50 C17        -6.4600   -3.1880   -1.0820 c         1 MOL      0.459677
     51 O10        -6.6910   -4.3250   -1.4530 o         1 MOL     -0.568325
     52 C18        -5.1370   -2.2160   -3.1000 c3        1 MOL     -0.006365
     53 C19        -3.7140   -2.1280   -2.4940 c         1 MOL      0.372045
     54 N6         -2.7430   -2.2100   -3.3680 n         1 MOL     -0.548738
     55 O11        -3.4630   -2.0370   -1.2790 o         1 MOL     -0.500539
     56 H20        -5.3640   -0.2200   -1.5380 hn        1 MOL      0.188760
     57 H21        -7.2120   -2.0270   -2.7370 h1        1 MOL      0.094820
     58 H22        -5.1860   -1.4050   -3.8340 hc        1 MOL      0.020299
     59 H23        -5.3480   -3.1370   -3.6350 hc        1 MOL      0.020299
     60 H24        -2.9380   -2.3620   -4.3490 hn        1 MOL      0.307871
     61 H25        -1.7780   -2.1370   -3.0920 hn        1 MOL      0.307871
     62 N7         -6.3130   -2.8880    0.1950 n         1 MOL     -0.162875
     63 C20        -6.4260   -3.8650    1.3190 c3        1 MOL     -0.380890
     64 C21        -5.1370   -4.4180    1.7990 c         1 MOL      0.540495
     65 O12        -5.0750   -5.0710    2.9080 o         1 MOL     -0.600332
     66 H26        -6.0630   -1.9460    0.4530 hn        1 MOL      0.144287
     67 H27        -7.0310   -4.7190    0.9920 h1        1 MOL      0.164642
     68 H28        -6.9200   -3.3000    2.1100 h1        1 MOL      0.164642
     69 N8         -3.9850   -4.0850    1.1880 n         1 MOL     -0.002950
     70 C22        -2.6700   -4.6470    1.4770 c3        1 MOL     -0.308562
     71 C23        -1.6540   -3.5460    1.5840 c         1 MOL      0.619610
     72 O13        -1.8710   -2.3850    1.2080 o         1 MOL     -0.684108
     73 C24        -2.1290   -5.4700    0.3260 c3        1 MOL      0.591682
     74 C25        -2.8780   -6.7580    0.1350 c3        1 MOL     -0.407952
     75 O14        -2.2310   -4.7720   -0.8800 oh        1 MOL     -0.679442
     76 H29        -3.9270   -3.5220    0.3470 hn        1 MOL      0.084949
     77 H30        -2.7260   -5.3090    2.3410 h1        1 MOL      0.102688
     78 H31        -1.0780   -5.6900    0.5100 h1        1 MOL      0.002144
     79 H32        -3.1150   -4.6150   -1.2280 ho        1 MOL      0.429880
     80 H33        -3.8910   -6.4940   -0.1460 hc        1 MOL      0.080558
     81 H34        -2.3090   -7.3740   -0.5600 hc        1 MOL      0.080558
     82 H35        -2.9330   -7.2390    1.1130 hc        1 MOL      0.080558
     83 N9         -0.4910   -3.8680    2.0850 n         1 MOL     -0.470038
     84 C26         0.7430   -3.0620    2.0300 c3        1 MOL      0.134554
     85 C27         1.4690   -3.2580    0.7270 c         1 MOL      0.704398
     86 O15         1.7670   -4.3560    0.3410 o         1 MOL     -0.642138
     87 C28         1.6650   -3.0790    3.2950 c3        1 MOL     -0.028636
     88 C29         1.2990   -1.8450    4.1690 c3        1 MOL      0.193320
     89 C30         3.2150   -3.0450    3.2500 c3        1 MOL     -0.325491
     90 C31         2.0010   -1.6730    5.5440 c3        1 MOL     -0.213783
     91 H36        -0.3070   -4.8340    2.3060 hn        1 MOL      0.244058
     92 H37         0.4510   -2.0060    1.9840 h1        1 MOL      0.060171
     93 H38         1.2910   -3.9580    3.8300 hc        1 MOL      0.016154
     94 H39         0.2270   -1.9550    4.3380 hc        1 MOL     -0.051102
     95 H40         1.4630   -0.9550    3.5550 hc        1 MOL     -0.051102
     96 H41         3.5730   -3.7330    2.4850 hc        1 MOL      0.073068
     97 H42         3.7080   -2.1190    2.9750 hc        1 MOL      0.073068
     98 H43         3.6850   -3.3090    4.1980 hc        1 MOL      0.073068
     99 H44         3.0640   -1.5100    5.3690 hc        1 MOL      0.046345
    100 H45         1.4290   -0.9490    6.1210 hc        1 MOL      0.046345
    101 H46         1.9680   -2.6090    6.1120 hc        1 MOL      0.046345
    102 N10         1.7320   -2.1840    0.0370 n         1 MOL     -0.221576
    103 C32         2.5220   -1.9970   -1.1640 c3        1 MOL     -0.107830
    104 C33         3.9720   -1.4530   -0.8290 c         1 MOL      0.526799
    105 O16         4.1170   -0.8670    0.2310 o         1 MOL     -0.379287
    106 C34         1.6840   -0.9930   -2.0830 c3        1 MOL     -0.286332
    107 C35         0.2890   -1.3860   -2.5150 c         1 MOL      0.780183
    108 O17        -0.6740   -1.0690   -1.7610 o         1 MOL     -0.672261
    109 O18         0.2070   -1.9290   -3.6390 o         1 MOL     -0.672261
    110 H47         1.2970   -1.3320    0.3740 hn        1 MOL      0.052970
    111 H48         2.6280   -2.9740   -1.6450 h1        1 MOL      0.095376
    112 H49         2.2080   -0.8240   -3.0300 hc        1 MOL      0.089729
    113 H50         1.7240    0.0060   -1.6630 hc        1 MOL      0.089729
    114 N11         5.0040   -1.6810   -1.6640 n         1 MOL     -0.627810
    115 C36         6.4170   -1.3520   -1.4020 c3        1 MOL      0.297006
    116 C37         6.6970    0.2110   -1.1670 c         1 MOL      0.300098
    117 O19         7.4510    0.5270   -0.2300 o         1 MOL     -0.511049
    118 C38         7.3280   -1.8850   -2.4970 c3        1 MOL     -0.311693
    119 C39         8.7810   -1.7960   -2.1700 ca        1 MOL      0.060984
    120 C40         9.2280   -2.3860   -0.9480 ca        1 MOL     -0.067080
    121 C41         9.6460   -1.1680   -3.0530 ca        1 MOL     -0.067080
    122 C42        10.6120   -2.5080   -0.7220 ca        1 MOL     -0.200147
    123 C43        11.0510   -1.2750   -2.8080 ca        1 MOL     -0.200147
    124 C44        11.5260   -1.9440   -1.6440 ca        1 MOL     -0.060554
    125 H51         4.8340   -2.1690   -2.5280 hn        1 MOL      0.329081
    126 H52         6.6240   -1.8240   -0.4470 h1        1 MOL      0.107892
    127 H53         7.1260   -1.4770   -3.4810 hc        1 MOL      0.100857
    128 H54         7.1430   -2.9510   -2.6320 hc        1 MOL      0.100857
    129 H55         8.5610   -2.8400   -0.2480 ha        1 MOL      0.095484
    130 H56         9.3120   -0.6670   -3.9490 ha        1 MOL      0.095484
    131 H57        10.9510   -2.8280    0.2570 ha        1 MOL      0.129785
    132 H58        11.8200   -0.8670   -3.4490 ha        1 MOL      0.129785
    133 H59        12.5950   -1.9710   -1.4560 ha        1 MOL      0.094120
    134 N12         6.0780    1.1460   -1.8400 n         1 MOL      0.022115
    135 C45         6.2110    2.6200   -1.5240 c3        1 MOL     -0.023607
    136 C46         5.7280    2.8670   -0.0780 c         1 MOL      0.309531
    137 O20         6.0650    3.8560    0.5730 o         1 MOL     -0.497551
    138 C47         5.3660    3.3390   -2.5780 c3        1 MOL     -0.185542
    139 C48         5.5460    2.3970   -3.7810 c3        1 MOL      0.187372
    140 C49         5.4260    0.9590   -3.1200 c3        1 MOL     -0.195849
    141 H60         7.2740    2.7830   -1.6990 h1        1 MOL      0.100610
    142 H61         4.2740    3.3250   -2.5090 hc        1 MOL      0.085756
    143 H62         5.8020    4.2820   -2.8880 hc        1 MOL      0.085756
    144 H63         4.8940    2.5510   -4.6290 hc        1 MOL     -0.024735
    145 H64         6.5500    2.5140   -4.1880 hc        1 MOL     -0.024735
    146 H65         4.3720    0.7160   -3.0120 h1        1 MOL      0.074696
    147 H66         5.8010    0.1630   -3.7650 h1        1 MOL      0.074696
    148 N13         4.8390    1.9790    0.4380 n         1 MOL      0.063251
    149 C50         4.2490    2.0630    1.7230 c3        1 MOL     -0.203085
    150 C51         5.2260    1.3790    2.7770 c         1 MOL      0.465813
    151 O21         5.2980    1.8930    3.9030 o         1 MOL     -0.573780
    152 C52         2.8400    1.4630    1.8320 c3        1 MOL     -0.035116
    153 C53         1.9310    1.8500    0.5570 c3        1 MOL      0.115465
    154 C54         0.4580    1.2950    0.5890 c         1 MOL      0.614887
    155 O22         0.1080    0.3030    1.2920 o         1 MOL     -0.729439
    156 O23        -0.4640    1.8830   -0.0340 o         1 MOL     -0.729439
    157 H67         4.8700    1.0770   -0.0120 hn        1 MOL      0.020089
    158 H68         4.1070    3.1180    1.9350 h1        1 MOL      0.131029
    159 H69         2.3210    1.8660    2.6980 hc        1 MOL      0.058381
    160 H70         2.8820    0.3780    1.9100 hc        1 MOL      0.058381
    161 H71         2.4570    1.5970   -0.3650 hc        1 MOL     -0.012816
    162 H72         1.9940    2.9300    0.4460 hc        1 MOL     -0.012816
    163 N14         5.9010    0.2850    2.4590 n         1 MOL     -0.038190
    164 C55         6.9860   -0.4380    3.2730 c3        1 MOL     -0.213795
    165 H73         6.8810   -1.5140    3.1410 h1        1 MOL      0.093457
    166 H74         7.9710   -0.1250    2.9250 h1        1 MOL      0.093457
    167 H75         6.8760   -0.1880    4.3280 h1        1 MOL      0.093457
    168 H76         5.6850   -0.0300    1.5230 hn        1 MOL      0.042900
    169 Ca1        -2.2210   -0.0660   -0.0120 Ca        1 MOL      1.726345
    170 O24        -2.1650    0.2210    2.7670 oh        1 MOL     -0.664665
    171 H77        -2.3560    0.3130    3.7010 ho        1 MOL      0.347490
    172 H78        -1.2470    0.4880    2.6740 ho        1 MOL      0.347490
    173 O25        -4.7880   -0.8460    1.3260 oh        1 MOL     -0.664665
    174 H79        -4.5460   -1.0970    2.2230 ho        1 MOL      0.347490
    175 H80        -4.9630    0.0970    1.3960 ho        1 MOL      0.347490
@<TRIPOS>BOND
     1    1    2 1   
     2    1    4 1   
     3    1    5 1   
     4    1    6 1   
     5    2    3 2   
     6    2    7 1   
     7    7    8 1   
     8    7   15 1   
     9    8    9 1   
    10    8   11 1   
    11    8   16 1   
    12    9   10 2   
    13    9   19 1   
    14   11   12 1   
    15   11   17 1   
    16   11   18 1   
    17   12   13 1   
    18   12   14 1   
    19   19   20 1   
    20   19   24 1   
    21   20   21 1   
    22   20   23 1   
    23   20   25 1   
    24   21   22 2   
    25   21   29 1   
    26   23   26 1   
    27   23   27 1   
    28   23   28 1   
    29   29   30 1   
    30   29   37 1   
    31   30   31 1   
    32   30   33 1   
    33   30   38 1   
    34   31   32 2   
    35   31   41 1   
    36   33   34 1   
    37   33   39 1   
    38   33   40 1   
    39   34   35 1   
    40   34   36 1   
    41   41   42 1   
    42   41   45 1   
    43   42   43 1   
    44   42   46 1   
    45   42   47 1   
    46   43   44 2   
    47   43   48 1   
    48   48   49 1   
    49   48   56 1   
    50   49   50 1   
    51   49   52 1   
    52   49   57 1   
    53   50   51 2   
    54   50   62 1   
    55   52   53 1   
    56   52   58 1   
    57   52   59 1   
    58   53   54 1   
    59   53   55 2   
    60   54   60 1   
    61   54   61 1   
    62   62   63 1   
    63   62   66 1   
    64   63   64 1   
    65   63   67 1   
    66   63   68 1   
    67   64   65 2   
    68   64   69 1   
    69   69   70 1   
    70   69   76 1   
    71   70   71 1   
    72   70   73 1   
    73   70   77 1   
    74   71   72 2   
    75   71   83 1   
    76   73   74 1   
    77   73   75 1   
    78   73   78 1   
    79   74   80 1   
    80   74   81 1   
    81   74   82 1   
    82   75   79 1   
    83   83   84 1   
    84   83   91 1   
    85   84   85 1   
    86   84   87 1   
    87   84   92 1   
    88   85   86 2   
    89   85  102 1   
    90   87   88 1   
    91   87   89 1   
    92   87   93 1   
    93   88   90 1   
    94   88   94 1   
    95   88   95 1   
    96   89   96 1   
    97   89   97 1   
    98   89   98 1   
    99   90   99 1   
   100   90  100 1   
   101   90  101 1   
   102  102  103 1   
   103  102  110 1   
   104  103  104 1   
   105  103  106 1   
   106  103  111 1   
   107  104  105 2   
   108  104  114 1   
   109  106  107 1   
   110  106  112 1   
   111  106  113 1   
   112  107  108 1   
   113  107  109 1   
   114  114  115 1   
   115  114  125 1   
   116  115  116 1   
   117  115  118 1   
   118  115  126 1   
   119  116  117 2   
   120  116  134 1   
   121  118  119 1   
   122  118  127 1   
   123  118  128 1   
   124  119  120 ar  
   125  119  121 ar  
   126  120  122 ar  
   127  120  129 1   
   128  121  123 ar  
   129  121  130 1   
   130  122  124 ar  
   131  122  131 1   
   132  123  124 ar  
   133  123  132 1   
   134  124  133 1   
   135  134  135 1   
   136  134  140 1   
   137  135  136 1   
   138  135  138 1   
   139  135  141 1   
   140  136  137 2   
   141  136  148 1   
   142  138  139 1   
   143  138  142 1   
   144  138  143 1   
   145  139  140 1   
   146  139  144 1   
   147  139  145 1   
   148  140  146 1   
   149  140  147 1   
   150  148  149 1   
   151  148  157 1   
   152  149  150 1   
   153  149  152 1   
   154  149  158 1   
   155  150  151 2   
   156  150  163 1   
   157  152  153 1   
   158  152  159 1   
   159  152  160 1   
   160  153  154 1   
   161  153  161 1   
   162  153  162 1   
   163  154  155 1   
   164  154  156 1   
   165  163  164 1   
   166  163  168 1   
   167  164  165 1   
   168  164  166 1   
   169  164  167 1   
   170  170  171 1   
   171  170  172 1   
   172  173  174 1   
   173  173  175 1   
@<TRIPOS>SUBSTRUCTURE
     1 MOL         1 TEMP              0 ****  ****    0 ROOT
