@<TRIPOS>MOLECULE
MOL
  175   173     1     0     0
SMALL
resp


@<TRIPOS>ATOM
      1 C1          0.9030    3.4470    5.5460 c3        1 MOL     -0.355789
      2 C2          0.2090    3.4670    4.2240 c         1 MOL      0.755598
      3 O1          0.8500    3.6340    3.1490 o         1 MOL     -0.566543
      4 H1          1.9720    3.6010    5.3970 hc        1 MOL      0.092055
      5 H2          0.5070    4.2420    6.1770 hc        1 MOL      0.092055
      6 H3          0.7390    2.4840    6.0290 hc        1 MOL      0.092055
      7 N1         -1.1400    3.3260    4.1800 n         1 MOL     -0.710512
      8 C3         -1.8540    3.2080    2.8820 c3        1 MOL      0.178613
      9 C4         -1.8810    4.5290    2.0510 c         1 MOL      0.594795
     10 O2         -2.0820    5.5460    2.6310 o         1 MOL     -0.572156
     11 C5         -3.2940    2.7610    3.0510 c3        1 MOL     -0.180275
     12 C6         -4.1070    2.7350    1.7570 c         1 MOL      0.571043
     13 O3         -3.6590    2.0430    0.8000 o         1 MOL     -0.600372
     14 O4         -5.1700    3.3480    1.6680 o         1 MOL     -0.600372
     15 H4         -1.6900    3.3550    5.0300 hn        1 MOL      0.347324
     16 H5         -1.5310    2.4080    2.2170 h1        1 MOL      0.023119
     17 H6         -3.7840    3.4380    3.7570 hc        1 MOL      0.027005
     18 H7         -3.4070    1.8120    3.5780 hc        1 MOL      0.027005
     19 N2         -1.7810    4.4770    0.7160 n         1 MOL     -0.416995
     20 C7         -1.9670    5.5480   -0.2260 c3        1 MOL      0.306211
     21 C8         -2.9550    5.2810   -1.3780 c         1 MOL      0.408785
     22 O5         -2.9870    6.0650   -2.3560 o         1 MOL     -0.560556
     23 C9         -0.5580    5.9020   -0.7840 c3        1 MOL     -0.316270
     24 H8         -1.4930    3.5740    0.3560 hn        1 MOL      0.235738
     25 H9         -2.4130    6.3650    0.3300 h1        1 MOL      0.008887
     26 H10        -0.2810    5.1500   -1.5220 hc        1 MOL      0.078335
     27 H11        -0.4830    6.8870   -1.2450 hc        1 MOL      0.078335
     28 H12         0.1600    5.9540    0.0440 hc        1 MOL      0.078335
     29 N3         -3.6890    4.1120   -1.3970 n         1 MOL     -0.330286
     30 C10        -4.4160    3.6320   -2.6020 c3        1 MOL      0.146071
     31 C11        -5.7220    2.8870   -2.4080 c         1 MOL      0.268799
     32 O6         -6.6420    2.8460   -3.2800 o         1 MOL     -0.541370
     33 C12        -3.4670    2.8760   -3.5180 c3        1 MOL     -0.231088
     34 C13        -2.9240    1.6680   -2.6630 c         1 MOL      0.764405
     35 O7         -1.7250    1.3660   -2.7930 o         1 MOL     -0.729035
     36 O8         -3.5940    0.9800   -1.9130 o         1 MOL     -0.729035
     37 H13        -3.5970    3.5220   -0.5850 hn        1 MOL      0.213983
     38 H14        -4.7770    4.5190   -3.1280 h1        1 MOL      0.070424
     39 H15        -2.5650    3.3850   -3.8610 hc        1 MOL      0.058555
     40 H16        -4.0070    2.5010   -4.3900 hc        1 MOL      0.058555
     41 N4         -5.9770    2.4270   -1.2010 n         1 MOL      0.111506
     42 C14        -7.1760    1.7150   -0.8350 c3        1 MOL     -0.457968
     43 C15        -7.3270    0.1990   -1.2870 c         1 MOL      0.540932
     44 O9         -8.4390   -0.3270   -1.3970 o         1 MOL     -0.589131
     45 H17        -5.2000    2.4830   -0.5590 hn        1 MOL     -0.056723
     46 H18        -8.0610    2.2210   -1.2370 h1        1 MOL      0.171982
     47 H19        -7.0660    1.5520    0.2390 h1        1 MOL      0.171982
     48 N5         -6.2030   -0.4400   -1.7020 n         1 MOL     -0.244455
     49 C16        -6.2220   -1.8030   -2.2770 c3        1 MOL      0.006308
     50 C17        -6.3870   -2.9140   -1.2700 c         1 MOL      0.402802
     51 O10        -6.4420   -4.1320   -1.5630 o         1 MOL     -0.532367
     52 C18        -5.0590   -2.0390   -3.2130 c3        1 MOL     -0.191578
     53 C19        -3.6540   -1.9630   -2.6070 c         1 MOL      0.467694
     54 N6         -2.6710   -1.9250   -3.5150 n         1 MOL     -0.655364
     55 O11        -3.3250   -1.9420   -1.4220 o         1 MOL     -0.203608
     56 H20        -5.3190    0.0490   -1.6720 hn        1 MOL      0.257329
     57 H21        -7.2010   -1.8210   -2.7540 h1        1 MOL      0.111180
     58 H22        -5.0770   -1.2160   -3.9180 hc        1 MOL      0.058656
     59 H23        -5.1240   -2.9970   -3.7390 hc        1 MOL      0.058656
     60 H24        -2.9650   -1.8480   -4.4720 hn        1 MOL      0.325490
     61 H25        -1.7050   -1.7380   -3.2660 hn        1 MOL      0.325490
     62 N7         -6.4830   -2.5140   -0.0120 n         1 MOL     -0.231994
     63 C20        -6.6770   -3.4830    1.1020 c3        1 MOL     -0.163975
     64 C21        -5.3810   -4.1450    1.6220 c         1 MOL      0.408949
     65 O12        -5.3710   -5.0990    2.4410 o         1 MOL     -0.578495
     66 H26        -6.5290   -1.5480    0.2750 hn        1 MOL      0.231427
     67 H27        -7.3520   -4.2960    0.7980 h1        1 MOL      0.110275
     68 H28        -7.2570   -2.8950    1.8110 h1        1 MOL      0.110275
     69 N8         -4.2130   -3.7730    1.1450 n         1 MOL     -0.066057
     70 C22        -2.9180   -4.4910    1.1870 c3        1 MOL     -0.158093
     71 C23        -1.6810   -3.5190    1.3780 c         1 MOL      0.550906
     72 O13        -1.8060   -2.3670    0.9740 o         1 MOL     -0.664080
     73 C24        -2.7490   -5.4870    0.0120 c3        1 MOL      0.566149
     74 C25        -3.8570   -6.5440   -0.0820 c3        1 MOL     -0.507708
     75 O14        -2.6630   -4.7740   -1.2120 oh        1 MOL     -0.611675
     76 H29        -4.2290   -2.9240    0.5980 hn        1 MOL      0.033550
     77 H30        -2.9390   -5.0120    2.1430 h1        1 MOL      0.065812
     78 H31        -1.7740   -5.9300    0.2020 h1        1 MOL     -0.078807
     79 H32        -2.1690   -3.9570   -1.1620 ho        1 MOL      0.314548
     80 H33        -3.7760   -7.0190    0.8940 hc        1 MOL      0.134414
     81 H34        -4.8490   -6.1130   -0.2620 hc        1 MOL      0.134414
     82 H35        -3.6350   -7.2390   -0.8860 hc        1 MOL      0.134414
     83 N9         -0.5490   -3.9270    1.9990 n         1 MOL     -0.376149
     84 C26         0.7510   -3.1860    2.0150 c3        1 MOL     -0.067156
     85 C27         1.5710   -3.3970    0.7330 c         1 MOL      0.625007
     86 O15         1.9840   -4.5470    0.3960 o         1 MOL     -0.605760
     87 C28         1.4550   -3.3790    3.4100 c3        1 MOL      0.071988
     88 C29         0.5330   -3.0190    4.6560 c3        1 MOL      0.426980
     89 C30         2.7310   -2.5330    3.5140 c3        1 MOL     -0.439335
     90 C31         1.1610   -3.2680    5.9760 c3        1 MOL     -0.209622
     91 H36        -0.6170   -4.8670    2.3750 hn        1 MOL      0.239924
     92 H37         0.4600   -2.1340    1.9560 h1        1 MOL      0.023830
     93 H38         1.7500   -4.4240    3.5530 hc        1 MOL     -0.001258
     94 H39        -0.3700   -3.6240    4.6380 hc        1 MOL     -0.109284
     95 H40         0.1670   -1.9970    4.5480 hc        1 MOL     -0.109284
     96 H41         3.2540   -2.7040    2.5830 hc        1 MOL      0.098415
     97 H42         2.6420   -1.4750    3.7800 hc        1 MOL      0.098415
     98 H43         3.3240   -2.8920    4.3610 hc        1 MOL      0.098415
     99 H44         0.4340   -3.0510    6.7590 hc        1 MOL      0.028016
    100 H45         1.4220   -4.3220    5.9710 hc        1 MOL      0.028016
    101 H46         2.0590   -2.6820    6.1650 hc        1 MOL      0.028016
    102 N10         1.7190   -2.2740    0.0900 n         1 MOL     -0.382031
    103 C32         2.6150   -2.1070   -1.0960 c3        1 MOL      0.119198
    104 C33         4.0670   -1.6660   -0.7160 c         1 MOL      0.248166
    105 O16         4.2420   -1.2950    0.4280 o         1 MOL     -0.247595
    106 C34         1.9730   -1.2620   -2.1520 c3        1 MOL     -0.215666
    107 C35         0.5090   -1.5990   -2.4280 c         1 MOL      0.692994
    108 O17        -0.4150   -1.0610   -1.7210 o         1 MOL     -0.659280
    109 O18         0.2550   -2.2800   -3.4530 o         1 MOL     -0.659280
    110 H47         1.3670   -1.4690    0.5820 hn        1 MOL      0.316611
    111 H48         2.7960   -3.0430   -1.6290 h1        1 MOL      0.035912
    112 H49         2.5680   -1.3680   -3.0650 hc        1 MOL      0.048792
    113 H50         2.0890   -0.2270   -1.8220 hc        1 MOL      0.048792
    114 N11         5.0000   -1.6800   -1.6430 n         1 MOL     -0.294319
    115 C36         6.3690   -1.3630   -1.3520 c3        1 MOL      0.087715
    116 C37         6.7650    0.1000   -1.1330 c         1 MOL      0.463081
    117 O19         7.4900    0.3880   -0.1900 o         1 MOL     -0.488597
    118 C38         7.1880   -1.8290   -2.5630 c3        1 MOL     -0.193821
    119 C39         8.6810   -1.7130   -2.4750 ca        1 MOL      0.104453
    120 C40         9.3900   -2.7950   -1.9380 ca        1 MOL     -0.187112
    121 C41         9.3220   -0.5440   -2.8890 ca        1 MOL     -0.187112
    122 C42        10.7780   -2.6990   -1.7190 ca        1 MOL     -0.080749
    123 C43        10.7030   -0.4590   -2.6670 ca        1 MOL     -0.080749
    124 C44        11.4860   -1.4980   -2.0420 ca        1 MOL     -0.162679
    125 H51         4.7580   -1.9240   -2.5950 hn        1 MOL      0.272059
    126 H52         6.6460   -2.0020   -0.5130 h1        1 MOL      0.099722
    127 H53         6.8160   -1.3410   -3.4620 hc        1 MOL      0.056680
    128 H54         6.8940   -2.8730   -2.6150 hc        1 MOL      0.056680
    129 H55         8.9280   -3.7200   -1.6210 ha        1 MOL      0.130913
    130 H56         8.7850    0.2600   -3.3760 ha        1 MOL      0.130913
    131 H57        11.2810   -3.5160   -1.2340 ha        1 MOL      0.101392
    132 H58        11.2290    0.4280   -2.9710 ha        1 MOL      0.101392
    133 H59        12.5390   -1.4200   -1.7670 ha        1 MOL      0.124427
    134 N12         6.2630    1.1490   -1.8620 n         1 MOL     -0.086800
    135 C45         6.3210    2.5420   -1.3850 c3        1 MOL     -0.059018
    136 C46         5.7740    2.6830    0.0330 c         1 MOL      0.376013
    137 O20         6.4210    3.3320    0.8360 o         1 MOL     -0.511184
    138 C47         5.6230    3.4300   -2.4220 c3        1 MOL     -0.056673
    139 C48         4.5740    2.4890   -3.0170 c3        1 MOL     -0.022351
    140 C49         5.3340    1.1000   -3.0080 c3        1 MOL     -0.112930
    141 H60         7.3730    2.7590   -1.2170 h1        1 MOL      0.071077
    142 H61         5.1490    4.3500   -2.0790 hc        1 MOL      0.046590
    143 H62         6.3060    3.8160   -3.1870 hc        1 MOL      0.046590
    144 H63         3.7240    2.4280   -2.3370 hc        1 MOL      0.056040
    145 H64         4.1550    2.7720   -3.9910 hc        1 MOL      0.056040
    146 H65         4.6610    0.2690   -2.8170 h1        1 MOL      0.048763
    147 H66         5.8840    0.9720   -3.9400 h1        1 MOL      0.048763
    148 N13         4.7220    1.9760    0.3850 n         1 MOL      0.071072
    149 C50         4.1690    1.9920    1.7580 c3        1 MOL     -0.225785
    150 C51         5.0470    1.2560    2.7610 c         1 MOL      0.549478
    151 O21         5.2750    1.7090    3.8650 o         1 MOL     -0.585187
    152 C52         2.7700    1.4030    1.6910 c3        1 MOL      0.026732
    153 C53         1.9480    1.8860    0.5150 c3        1 MOL      0.138454
    154 C54         0.5360    1.3460    0.6440 c         1 MOL      0.421976
    155 O22        -0.4210    1.9190    0.0420 o         1 MOL     -0.633464
    156 O23         0.2880    0.1360    1.0170 o         1 MOL     -0.633464
    157 H67         4.1520    1.5620   -0.3250 hn        1 MOL     -0.055290
    158 H68         4.2320    3.0200    2.0980 h1        1 MOL      0.095549
    159 H69         2.2250    1.5400    2.6330 hc        1 MOL      0.013269
    160 H70         2.9870    0.3420    1.5810 hc        1 MOL      0.013269
    161 H71         2.3580    1.5110   -0.4090 hc        1 MOL      0.016190
    162 H72         1.9600    2.9760    0.4470 hc        1 MOL      0.016190
    163 N14         5.5840    0.1190    2.4140 n         1 MOL     -0.048142
    164 C55         6.5930   -0.5630    3.2850 c3        1 MOL     -0.264806
    165 H73         6.4520   -0.2500    4.3190 h1        1 MOL      0.093809
    166 H74         6.4650   -1.6440    3.2120 h1        1 MOL      0.093809
    167 H75         7.5970   -0.2930    2.9570 h1        1 MOL      0.093809
    168 H76         5.3760   -0.2720    1.5080 hn        1 MOL      0.014715
    169 Ca1        -2.0050   -0.0450   -0.1730 Ca        1 MOL      1.673611
    170 O24        -4.7740   -0.4040    1.0060 oh        1 MOL     -0.744108
    171 H77        -4.8220    0.5470    0.8800 ho        1 MOL      0.375733
    172 H78        -5.0090   -0.5310    1.9180 ho        1 MOL      0.375733
    173 O25        -2.0390    0.1240    2.4890 oh        1 MOL     -0.744108
    174 H79        -1.0970    0.2090    2.3420 ho        1 MOL      0.375733
    175 H80        -2.1640    0.3310    3.4080 ho        1 MOL      0.375733
@<TRIPOS>BOND
     1    1    2 1   
     2    1    4 1   
     3    1    5 1   
     4    1    6 1   
     5    2    3 2   
     6    2    7 1   
     7    7    8 1   
     8    7   15 1   
     9    8    9 1   
    10    8   11 1   
    11    8   16 1   
    12    9   10 2   
    13    9   19 1   
    14   11   12 1   
    15   11   17 1   
    16   11   18 1   
    17   12   13 1   
    18   12   14 1   
    19   19   20 1   
    20   19   24 1   
    21   20   21 1   
    22   20   23 1   
    23   20   25 1   
    24   21   22 2   
    25   21   29 1   
    26   23   26 1   
    27   23   27 1   
    28   23   28 1   
    29   29   30 1   
    30   29   37 1   
    31   30   31 1   
    32   30   33 1   
    33   30   38 1   
    34   31   32 2   
    35   31   41 1   
    36   33   34 1   
    37   33   39 1   
    38   33   40 1   
    39   34   35 1   
    40   34   36 1   
    41   41   42 1   
    42   41   45 1   
    43   42   43 1   
    44   42   46 1   
    45   42   47 1   
    46   43   44 2   
    47   43   48 1   
    48   48   49 1   
    49   48   56 1   
    50   49   50 1   
    51   49   52 1   
    52   49   57 1   
    53   50   51 2   
    54   50   62 1   
    55   52   53 1   
    56   52   58 1   
    57   52   59 1   
    58   53   54 1   
    59   53   55 2   
    60   54   60 1   
    61   54   61 1   
    62   62   63 1   
    63   62   66 1   
    64   63   64 1   
    65   63   67 1   
    66   63   68 1   
    67   64   65 2   
    68   64   69 1   
    69   69   70 1   
    70   69   76 1   
    71   70   71 1   
    72   70   73 1   
    73   70   77 1   
    74   71   72 2   
    75   71   83 1   
    76   73   74 1   
    77   73   75 1   
    78   73   78 1   
    79   74   80 1   
    80   74   81 1   
    81   74   82 1   
    82   75   79 1   
    83   83   84 1   
    84   83   91 1   
    85   84   85 1   
    86   84   87 1   
    87   84   92 1   
    88   85   86 2   
    89   85  102 1   
    90   87   88 1   
    91   87   89 1   
    92   87   93 1   
    93   88   90 1   
    94   88   94 1   
    95   88   95 1   
    96   89   96 1   
    97   89   97 1   
    98   89   98 1   
    99   90   99 1   
   100   90  100 1   
   101   90  101 1   
   102  102  103 1   
   103  102  110 1   
   104  103  104 1   
   105  103  106 1   
   106  103  111 1   
   107  104  105 2   
   108  104  114 1   
   109  106  107 1   
   110  106  112 1   
   111  106  113 1   
   112  107  108 1   
   113  107  109 1   
   114  114  115 1   
   115  114  125 1   
   116  115  116 1   
   117  115  118 1   
   118  115  126 1   
   119  116  117 2   
   120  116  134 1   
   121  118  119 1   
   122  118  127 1   
   123  118  128 1   
   124  119  120 ar  
   125  119  121 ar  
   126  120  122 ar  
   127  120  129 1   
   128  121  123 ar  
   129  121  130 1   
   130  122  124 ar  
   131  122  131 1   
   132  123  124 ar  
   133  123  132 1   
   134  124  133 1   
   135  134  135 1   
   136  134  140 1   
   137  135  136 1   
   138  135  138 1   
   139  135  141 1   
   140  136  137 2   
   141  136  148 1   
   142  138  139 1   
   143  138  142 1   
   144  138  143 1   
   145  139  140 1   
   146  139  144 1   
   147  139  145 1   
   148  140  146 1   
   149  140  147 1   
   150  148  149 1   
   151  148  157 1   
   152  149  150 1   
   153  149  152 1   
   154  149  158 1   
   155  150  151 2   
   156  150  163 1   
   157  152  153 1   
   158  152  159 1   
   159  152  160 1   
   160  153  154 1   
   161  153  161 1   
   162  153  162 1   
   163  154  155 1   
   164  154  156 1   
   165  163  164 1   
   166  163  168 1   
   167  164  165 1   
   168  164  166 1   
   169  164  167 1   
   170  170  171 1   
   171  170  172 1   
   172  173  174 1   
   173  173  175 1   
@<TRIPOS>SUBSTRUCTURE
     1 MOL         1 TEMP              0 ****  ****    0 ROOT
