@<TRIPOS>MOLECULE
MOL
  175   173     1     0     0
SMALL
resp


@<TRIPOS>ATOM
      1 C1          0.6390    3.9110    5.7890 c3        1 MOL     -0.335635
      2 C2          0.0800    4.0270    4.3810 c         1 MOL      0.762498
      3 O1          0.8320    4.2240    3.4770 o         1 MOL     -0.575039
      4 H1          0.5000    2.8930    6.1520 hc        1 MOL      0.076635
      5 H2          1.7020    4.1510    5.7800 hc        1 MOL      0.076635
      6 H3          0.1150    4.6050    6.4470 hc        1 MOL      0.076635
      7 N1         -1.2210    3.9350    4.1060 n         1 MOL     -0.678266
      8 C3         -1.8070    3.6970    2.7950 c3        1 MOL      0.228639
      9 C4         -1.7200    4.8830    1.7400 c         1 MOL      0.605915
     10 O2         -1.8330    6.0750    2.0640 o         1 MOL     -0.561344
     11 C5         -3.2960    3.2290    2.9460 c3        1 MOL     -0.322144
     12 C6         -3.8610    2.8510    1.6570 c         1 MOL      0.703144
     13 O3         -5.0250    3.2950    1.3670 o         1 MOL     -0.656729
     14 O4         -3.2490    2.0780    0.8770 o         1 MOL     -0.656729
     15 H4         -1.8090    3.6940    4.8950 hn        1 MOL      0.294619
     16 H5         -1.3330    2.8030    2.3730 h1        1 MOL      0.061892
     17 H6         -3.9230    4.0290    3.3240 hc        1 MOL      0.067142
     18 H7         -3.3520    2.3180    3.5360 hc        1 MOL      0.067142
     19 N2         -1.5300    4.4980    0.4140 n         1 MOL     -0.600139
     20 C7         -1.7200    5.4180   -0.6820 c3        1 MOL      0.458920
     21 C8         -3.0020    5.1540   -1.6290 c         1 MOL      0.300536
     22 O5         -3.5420    6.1400   -2.1540 o         1 MOL     -0.581086
     23 C9         -0.4040    5.4220   -1.5590 c3        1 MOL     -0.344239
     24 H8         -1.2140    3.5460    0.2740 hn        1 MOL      0.260262
     25 H9         -1.8510    6.4290   -0.2900 h1        1 MOL     -0.012637
     26 H10         0.4700    5.4820   -0.9170 hc        1 MOL      0.071744
     27 H11        -0.3180    4.4800   -2.1170 hc        1 MOL      0.071744
     28 H12        -0.4400    6.2890   -2.2070 hc        1 MOL      0.071744
     29 N3         -3.4290    3.9070   -1.8440 n         1 MOL      0.048190
     30 C10        -4.3980    3.5230   -2.9430 c3        1 MOL      0.025800
     31 C11        -5.7160    2.7500   -2.4720 c         1 MOL      0.388293
     32 O6         -6.6950    2.7090   -3.2830 o         1 MOL     -0.586758
     33 C12        -3.7190    2.6690   -4.0260 c3        1 MOL     -0.136053
     34 C13        -2.9250    1.4690   -3.4880 c         1 MOL      0.652400
     35 O7         -2.9340    1.1860   -2.2580 o         1 MOL     -0.656750
     36 O8         -2.2670    0.7860   -4.2550 o         1 MOL     -0.656750
     37 H13        -2.9730    3.1390   -1.3690 hn        1 MOL      0.022645
     38 H14        -4.7340    4.4330   -3.4460 h1        1 MOL      0.071196
     39 H15        -2.9600    3.3160   -4.4510 hc        1 MOL      0.023702
     40 H16        -4.4110    2.4550   -4.8370 hc        1 MOL      0.023702
     41 N4         -5.8080    2.4070   -1.2190 n         1 MOL     -0.022382
     42 C14        -6.9500    1.7220   -0.6370 c3        1 MOL     -0.091978
     43 C15        -7.1370    0.2700   -1.0500 c         1 MOL      0.546270
     44 O9         -8.2650   -0.2360   -0.8750 o         1 MOL     -0.618630
     45 H17        -5.0270    2.7570   -0.6850 hn        1 MOL     -0.028590
     46 H18        -7.9080    2.2220   -0.8020 h1        1 MOL      0.087157
     47 H19        -6.8570    1.6520    0.4420 h1        1 MOL      0.087157
     48 N5         -6.1520   -0.4790   -1.5880 n         1 MOL     -0.438312
     49 C16        -6.3530   -1.8180   -2.1160 c3        1 MOL      0.376545
     50 C17        -6.3870   -2.9710   -0.9140 c         1 MOL      0.229478
     51 O10        -6.1710   -4.1020   -1.2230 o         1 MOL     -0.433086
     52 C18        -5.3980   -2.1420   -3.2320 c3        1 MOL     -0.373524
     53 C19        -3.9280   -2.1620   -2.8170 c         1 MOL      0.810983
     54 N6         -2.9970   -2.3430   -3.6990 n         1 MOL     -0.669566
     55 O11        -3.5480   -1.9660   -1.6490 o         1 MOL     -0.830876
     56 H20        -5.3320   -0.0400   -1.9830 hn        1 MOL      0.210472
     57 H21        -7.3670   -1.9040   -2.5130 h1        1 MOL      0.028447
     58 H22        -5.5180   -1.3680   -3.9860 hc        1 MOL      0.093052
     59 H23        -5.6000   -3.0970   -3.6970 hc        1 MOL      0.093052
     60 H24        -3.2980   -2.2050   -4.6620 hn        1 MOL      0.332451
     61 H25        -2.0500   -2.1200   -3.4220 hn        1 MOL      0.332451
     62 N7         -6.5760   -2.6570    0.4050 n         1 MOL     -0.099639
     63 C20        -6.7450   -3.5600    1.5050 c3        1 MOL     -0.336452
     64 C21        -5.4100   -4.3120    1.8180 c         1 MOL      0.589129
     65 O12        -5.3360   -5.2340    2.6090 o         1 MOL     -0.581304
     66 H26        -6.6880   -1.6520    0.4490 hn        1 MOL      0.217815
     67 H27        -7.3990   -4.4060    1.2850 h1        1 MOL      0.143123
     68 H28        -7.1620   -3.0150    2.3490 h1        1 MOL      0.143123
     69 N8         -4.2840   -3.8860    1.2680 n         1 MOL     -0.291521
     70 C22        -2.9180   -4.5250    1.4020 c3        1 MOL     -0.160086
     71 C23        -1.8650   -3.4250    1.4090 c         1 MOL      0.515920
     72 O13        -1.8270   -2.4280    0.6800 o         1 MOL     -0.446240
     73 C24        -2.6090   -5.4050    0.2500 c3        1 MOL      0.464765
     74 C25        -3.6200   -6.5570    0.2180 c3        1 MOL     -0.454092
     75 O14        -2.7940   -4.7810   -0.9530 oh        1 MOL     -0.566398
     76 H29        -4.3570   -3.2350    0.5040 hn        1 MOL      0.207433
     77 H30        -2.8150   -5.1250    2.3050 h1        1 MOL      0.107255
     78 H31        -1.6010   -5.8000    0.3780 h1        1 MOL     -0.028596
     79 H32        -2.4660   -3.8850   -0.8870 ho        1 MOL      0.385958
     80 H33        -3.6680   -7.0610    1.1860 hc        1 MOL      0.114565
     81 H34        -4.5940   -6.2120   -0.1510 hc        1 MOL      0.114565
     82 H35        -3.1680   -7.2640   -0.4700 hc        1 MOL      0.114565
     83 N9         -0.8060   -3.5410    2.2830 n         1 MOL     -0.476124
     84 C26         0.5330   -2.9280    2.2520 c3        1 MOL     -0.195770
     85 C27         1.2130   -3.2360    0.8710 c         1 MOL      0.633259
     86 O15         1.5080   -4.3510    0.5490 o         1 MOL     -0.581553
     87 C28         1.3290   -3.2490    3.4970 c3        1 MOL      0.127956
     88 C29         0.7870   -2.3380    4.6330 c3        1 MOL      0.076037
     89 C30         2.8330   -2.9080    3.3440 c3        1 MOL     -0.280754
     90 C31         1.6640   -2.4090    5.9400 c3        1 MOL     -0.124241
     91 H36        -0.8670   -4.3330    2.9110 hn        1 MOL      0.286593
     92 H37         0.4320   -1.8420    2.1730 h1        1 MOL      0.126352
     93 H38         1.0990   -4.2690    3.8290 hc        1 MOL      0.028289
     94 H39        -0.1620   -2.7760    4.9310 hc        1 MOL     -0.027366
     95 H40         0.7230   -1.3420    4.1940 hc        1 MOL     -0.027366
     96 H41         3.2710   -3.3640    2.4530 hc        1 MOL      0.066930
     97 H42         3.0140   -1.8330    3.2690 hc        1 MOL      0.066930
     98 H43         3.4100   -3.3180    4.1700 hc        1 MOL      0.066930
     99 H44         1.1750   -2.0790    6.8570 hc        1 MOL      0.025784
    100 H45         1.9770   -3.4430    6.0650 hc        1 MOL      0.025784
    101 H46         2.5730   -1.8420    5.7460 hc        1 MOL      0.025784
    102 N10         1.4410   -2.2360   -0.0210 n         1 MOL     -0.327752
    103 C32         2.3740   -2.3210   -1.1680 c3        1 MOL      0.056054
    104 C33         3.9040   -1.9490   -0.7870 c         1 MOL      0.424105
    105 O16         4.1480   -1.3830    0.2820 o         1 MOL     -0.347116
    106 C34         1.9760   -1.3590   -2.3230 c3        1 MOL     -0.107825
    107 C35         0.4290   -1.1520   -2.4790 c         1 MOL      0.622474
    108 O17        -0.1120   -0.4500   -1.6340 o         1 MOL     -0.617475
    109 O18        -0.2130   -1.7370   -3.3940 o         1 MOL     -0.617475
    110 H47         1.0110   -1.3490    0.1910 hn        1 MOL      0.173641
    111 H48         2.4280   -3.2970   -1.6430 h1        1 MOL      0.069166
    112 H49         2.2810   -1.7800   -3.2810 hc        1 MOL      0.002690
    113 H50         2.5110   -0.4110   -2.2370 hc        1 MOL      0.002690
    114 N11         4.9140   -2.1290   -1.6660 n         1 MOL     -0.603341
    115 C36         6.3310   -1.8300   -1.4810 c3        1 MOL      0.321220
    116 C37         6.7320   -0.3910   -1.0190 c         1 MOL      0.493168
    117 O19         7.3610   -0.3710   -0.0000 o         1 MOL     -0.530043
    118 C38         7.2340   -2.2660   -2.7050 c3        1 MOL     -0.165448
    119 C39         8.6660   -1.7440   -2.6050 ca        1 MOL      0.115939
    120 C40         9.4730   -2.3160   -1.6290 ca        1 MOL     -0.193948
    121 C41         9.1480   -0.7230   -3.4660 ca        1 MOL     -0.193948
    122 C42        10.8170   -1.9250   -1.5370 ca        1 MOL     -0.068063
    123 C43        10.4940   -0.3950   -3.4290 ca        1 MOL     -0.068063
    124 C44        11.3780   -1.0510   -2.4980 ca        1 MOL     -0.178177
    125 H51         4.6670   -2.5200   -2.5730 hn        1 MOL      0.306056
    126 H52         6.6180   -2.4940   -0.6680 h1        1 MOL      0.038062
    127 H53         6.8370   -1.8620   -3.6370 hc        1 MOL      0.041534
    128 H54         7.2880   -3.3620   -2.7360 hc        1 MOL      0.041534
    129 H55         9.0510   -3.0080   -0.9140 ha        1 MOL      0.125794
    130 H56         8.5220   -0.2270   -4.2020 ha        1 MOL      0.125794
    131 H57        11.3720   -2.2890   -0.6780 ha        1 MOL      0.105015
    132 H58        10.8570    0.3460   -4.1140 ha        1 MOL      0.105015
    133 H59        12.4000   -0.7080   -2.5690 ha        1 MOL      0.114563
    134 N12         6.2690    0.7970   -1.5760 n         1 MOL     -0.152808
    135 C45         6.5500    2.1030   -1.1320 c3        1 MOL     -0.058068
    136 C46         5.8870    2.3850    0.2040 c         1 MOL      0.413918
    137 O20         6.3070    3.2480    0.8550 o         1 MOL     -0.504798
    138 C47         6.1010    3.0300   -2.2410 c3        1 MOL     -0.139483
    139 C48         4.9510    2.3560   -2.9170 c3        1 MOL      0.050899
    140 C49         5.4460    0.9160   -2.8290 c3        1 MOL     -0.055746
    141 H60         7.6210    2.2200   -0.9940 h1        1 MOL      0.073859
    142 H61         5.8310    3.9740   -1.7640 hc        1 MOL      0.060629
    143 H62         6.9160    3.2240   -2.9470 hc        1 MOL      0.060629
    144 H63         4.0480    2.5170   -2.3170 hc        1 MOL      0.026024
    145 H64         4.8560    2.6820   -3.9490 hc        1 MOL      0.026024
    146 H65         4.5830    0.2830   -2.6770 h1        1 MOL      0.031131
    147 H66         6.0730    0.7510   -3.7060 h1        1 MOL      0.031131
    148 N13         4.8490    1.6650    0.6000 n         1 MOL     -0.072858
    149 C50         4.1580    1.8240    1.9060 c3        1 MOL     -0.212497
    150 C51         4.9810    1.1090    3.0140 c         1 MOL      0.402724
    151 O21         5.3410    1.7030    4.0570 o         1 MOL     -0.537835
    152 C52         2.7150    1.2440    1.8090 c3        1 MOL     -0.041164
    153 C53         1.8340    1.8810    0.6970 c3        1 MOL      0.028166
    154 C54         0.4080    1.3380    0.6670 c         1 MOL      0.336297
    155 O22         0.1390    0.2450    1.2720 o         1 MOL     -0.560587
    156 O23        -0.4910    1.9090   -0.0300 o         1 MOL     -0.560587
    157 H67         4.4800    0.8920    0.0620 hn        1 MOL      0.211057
    158 H68         4.1260    2.8760    2.2000 h1        1 MOL      0.135840
    159 H69         2.3210    1.5050    2.7930 hc        1 MOL      0.053776
    160 H70         2.6250    0.1610    1.7260 hc        1 MOL      0.053776
    161 H71         2.3350    2.0090   -0.2510 hc        1 MOL      0.045350
    162 H72         1.8290    2.9370    0.9770 hc        1 MOL      0.045350
    163 N14         5.5690   -0.0510    2.6730 n         1 MOL     -0.010172
    164 C55         6.4100   -0.8520    3.5480 c3        1 MOL     -0.098275
    165 H73         5.9640   -1.8390    3.6760 h1        1 MOL      0.049393
    166 H74         7.4000   -0.9560    3.1060 h1        1 MOL      0.049393
    167 H75         6.4940   -0.3650    4.5190 h1        1 MOL      0.049393
    168 H76         5.2450   -0.4010    1.7860 hn        1 MOL      0.006783
    169 Ca1        -2.2050    0.0320   -0.2140 Ca        1 MOL      1.723203
    170 O24        -4.0730   -0.6240    1.5900 oh        1 MOL     -0.868315
    171 H77        -4.9510   -0.3490    1.8530 ho        1 MOL      0.410384
    172 H78        -3.5290   -0.4890    2.3630 ho        1 MOL      0.410384
    173 O25        -1.7520    0.2060    2.9290 oh        1 MOL     -0.868315
    174 H79        -1.6780    0.5850    3.8040 ho        1 MOL      0.410384
    175 H80        -0.8440    0.0990    2.6450 ho        1 MOL      0.410384
@<TRIPOS>BOND
     1    1    2 1   
     2    1    4 1   
     3    1    5 1   
     4    1    6 1   
     5    2    3 2   
     6    2    7 1   
     7    7    8 1   
     8    7   15 1   
     9    8    9 1   
    10    8   11 1   
    11    8   16 1   
    12    9   10 2   
    13    9   19 1   
    14   11   12 1   
    15   11   17 1   
    16   11   18 1   
    17   12   13 1   
    18   12   14 1   
    19   19   20 1   
    20   19   24 1   
    21   20   21 1   
    22   20   23 1   
    23   20   25 1   
    24   21   22 2   
    25   21   29 1   
    26   23   26 1   
    27   23   27 1   
    28   23   28 1   
    29   29   30 1   
    30   29   37 1   
    31   30   31 1   
    32   30   33 1   
    33   30   38 1   
    34   31   32 2   
    35   31   41 1   
    36   33   34 1   
    37   33   39 1   
    38   33   40 1   
    39   34   35 1   
    40   34   36 1   
    41   41   42 1   
    42   41   45 1   
    43   42   43 1   
    44   42   46 1   
    45   42   47 1   
    46   43   44 2   
    47   43   48 1   
    48   48   49 1   
    49   48   56 1   
    50   49   50 1   
    51   49   52 1   
    52   49   57 1   
    53   50   51 2   
    54   50   62 1   
    55   52   53 1   
    56   52   58 1   
    57   52   59 1   
    58   53   54 1   
    59   53   55 2   
    60   54   60 1   
    61   54   61 1   
    62   62   63 1   
    63   62   66 1   
    64   63   64 1   
    65   63   67 1   
    66   63   68 1   
    67   64   65 2   
    68   64   69 1   
    69   69   70 1   
    70   69   76 1   
    71   70   71 1   
    72   70   73 1   
    73   70   77 1   
    74   71   72 2   
    75   71   83 1   
    76   73   74 1   
    77   73   75 1   
    78   73   78 1   
    79   74   80 1   
    80   74   81 1   
    81   74   82 1   
    82   75   79 1   
    83   83   84 1   
    84   83   91 1   
    85   84   85 1   
    86   84   87 1   
    87   84   92 1   
    88   85   86 2   
    89   85  102 1   
    90   87   88 1   
    91   87   89 1   
    92   87   93 1   
    93   88   90 1   
    94   88   94 1   
    95   88   95 1   
    96   89   96 1   
    97   89   97 1   
    98   89   98 1   
    99   90   99 1   
   100   90  100 1   
   101   90  101 1   
   102  102  103 1   
   103  102  110 1   
   104  103  104 1   
   105  103  106 1   
   106  103  111 1   
   107  104  105 2   
   108  104  114 1   
   109  106  107 1   
   110  106  112 1   
   111  106  113 1   
   112  107  108 1   
   113  107  109 1   
   114  114  115 1   
   115  114  125 1   
   116  115  116 1   
   117  115  118 1   
   118  115  126 1   
   119  116  117 2   
   120  116  134 1   
   121  118  119 1   
   122  118  127 1   
   123  118  128 1   
   124  119  120 ar  
   125  119  121 ar  
   126  120  122 ar  
   127  120  129 1   
   128  121  123 ar  
   129  121  130 1   
   130  122  124 ar  
   131  122  131 1   
   132  123  124 ar  
   133  123  132 1   
   134  124  133 1   
   135  134  135 1   
   136  134  140 1   
   137  135  136 1   
   138  135  138 1   
   139  135  141 1   
   140  136  137 2   
   141  136  148 1   
   142  138  139 1   
   143  138  142 1   
   144  138  143 1   
   145  139  140 1   
   146  139  144 1   
   147  139  145 1   
   148  140  146 1   
   149  140  147 1   
   150  148  149 1   
   151  148  157 1   
   152  149  150 1   
   153  149  152 1   
   154  149  158 1   
   155  150  151 2   
   156  150  163 1   
   157  152  153 1   
   158  152  159 1   
   159  152  160 1   
   160  153  154 1   
   161  153  161 1   
   162  153  162 1   
   163  154  155 1   
   164  154  156 1   
   165  163  164 1   
   166  163  168 1   
   167  164  165 1   
   168  164  166 1   
   169  164  167 1   
   170  170  171 1   
   171  170  172 1   
   172  173  174 1   
   173  173  175 1   
@<TRIPOS>SUBSTRUCTURE
     1 MOL         1 TEMP              0 ****  ****    0 ROOT
