@<TRIPOS>MOLECULE
MOL
  189   185     1     0     0
SMALL
resp


@<TRIPOS>ATOM
      1 C1         -0.6790    2.9740    5.5530 c3        1 MOL     -0.421055
      2 C2         -0.8700    2.3310    4.1840 c         1 MOL      0.890781
      3 O1          0.0780    2.4880    3.3600 o         1 MOL     -0.663681
      4 H1         -1.0340    2.2930    6.3260 hc        1 MOL      0.100901
      5 H2          0.3780    3.1840    5.7110 hc        1 MOL      0.100901
      6 H3         -1.2460    3.9040    5.6000 hc        1 MOL      0.100901
      7 N1         -1.9510    1.6490    3.8210 n         1 MOL     -0.787524
      8 C3         -2.3310    1.5850    2.4060 c3        1 MOL      0.339601
      9 C4         -2.7510    2.9570    1.8600 c         1 MOL      0.341982
     10 O2         -3.7040    3.5370    2.3900 o         1 MOL     -0.579771
     11 C5         -3.3720    0.4630    2.1390 c3        1 MOL     -0.340984
     12 C6         -4.0320    0.4000    0.7800 c         1 MOL      0.788936
     13 O3         -5.1970    0.1410    0.7880 o         1 MOL     -0.620967
     14 O4         -3.3410    0.7160   -0.2630 o         1 MOL     -0.620967
     15 H4         -2.7130    1.4320    4.4490 hn        1 MOL      0.366138
     16 H5         -1.4350    1.2600    1.8680 h1        1 MOL     -0.054095
     17 H6         -4.0850    0.7550    2.9010 hc        1 MOL      0.082469
     18 H7         -2.9660   -0.4930    2.4400 hc        1 MOL      0.082469
     19 N2         -2.1650    3.4480    0.7740 n         1 MOL      0.007770
     20 C7         -2.5890    4.7210    0.1610 c3        1 MOL      0.036268
     21 C8         -3.5550    4.5450   -1.0100 c         1 MOL      0.577546
     22 O5         -3.9300    5.5840   -1.4790 o         1 MOL     -0.556651
     23 C9         -1.2920    5.4270   -0.2110 c3        1 MOL     -0.092590
     24 C10        -0.2120    5.8000    0.7840 c3        1 MOL     -0.223000
     25 C11        -0.8140    6.4440    2.0820 c3        1 MOL      0.068614
     26 C12         0.3230    6.8920    2.9520 c3        1 MOL     -0.012506
     27 N3         -0.1490    7.3390    4.2660 n4        1 MOL     -0.295229
     28 H8         -1.3850    2.9850    0.3380 hn        1 MOL      0.175181
     29 H9         -3.1500    5.4080    0.7950 h1        1 MOL      0.016253
     30 H10        -1.6690    6.3610   -0.6250 hc        1 MOL      0.068750
     31 H11        -0.8060    4.7480   -0.9110 hc        1 MOL      0.068750
     32 H12         0.4150    6.5240    0.2700 hc        1 MOL      0.081119
     33 H13         0.1730    4.8300    1.0880 hc        1 MOL      0.081119
     34 H14        -1.3630    5.6850    2.6430 hc        1 MOL      0.018925
     35 H15        -1.3660    7.3660    1.9140 hc        1 MOL      0.018925
     36 H16         0.7780    7.7370    2.4230 hx        1 MOL      0.089899
     37 H17         1.0730    6.1230    3.1630 hx        1 MOL      0.089899
     38 H18         0.5990    7.4880    4.9230 hn        1 MOL      0.304343
     39 H19        -0.6500    8.2120    4.1540 hn        1 MOL      0.304343
     40 H20        -0.7890    6.6700    4.6630 hn        1 MOL      0.304343
     41 N4         -4.0620    3.3500   -1.3190 n         1 MOL     -0.363877
     42 C13        -4.7340    2.9530   -2.5750 c3        1 MOL      0.026373
     43 C14        -6.2060    2.4680   -2.3390 c         1 MOL      0.446678
     44 O6         -7.1010    2.8120   -3.1470 o         1 MOL     -0.570214
     45 C15        -3.9580    1.9170   -3.3470 c3        1 MOL      0.011590
     46 C16        -2.5320    2.3460   -3.5760 c         1 MOL      0.595810
     47 O7         -1.6870    1.5280   -3.1990 o         1 MOL     -0.673363
     48 O8         -2.2440    3.5210   -4.0420 o         1 MOL     -0.673363
     49 H21        -3.7760    2.5590   -0.7590 hn        1 MOL      0.044758
     50 H22        -4.8220    3.8630   -3.1660 h1        1 MOL      0.085126
     51 H23        -4.4880    1.9080   -4.2970 hc        1 MOL     -0.010756
     52 H24        -3.9890    0.9520   -2.8310 hc        1 MOL     -0.010756
     53 N5         -6.4660    1.7840   -1.3080 n         1 MOL     -0.263522
     54 C17        -7.7900    1.1340   -1.0540 c3        1 MOL     -0.110928
     55 C18        -7.8480   -0.3120   -1.5150 c         1 MOL      0.487060
     56 O9         -8.9040   -0.8970   -1.5710 o         1 MOL     -0.570242
     57 H25        -5.6700    1.5730   -0.7190 hn        1 MOL      0.239019
     58 H26        -8.6000    1.6880   -1.5280 h1        1 MOL      0.099214
     59 H27        -7.9820    1.2100    0.0170 h1        1 MOL      0.099214
     60 N6         -6.7140   -0.9160   -1.8190 n         1 MOL     -0.152195
     61 C19        -6.6530   -2.3320   -2.0440 c3        1 MOL     -0.151369
     62 C20        -6.4920   -3.1090   -0.6500 c         1 MOL      0.491146
     63 O10        -6.3620   -4.2990   -0.6600 o         1 MOL     -0.505456
     64 C21        -5.4190   -2.6840   -2.9980 c3        1 MOL     -0.379256
     65 C22        -4.0210   -2.1280   -2.5370 c         1 MOL      0.642572
     66 O11        -3.4450   -1.3270   -3.2680 o         1 MOL     -0.646320
     67 O12        -3.6320   -2.3480   -1.3620 o         1 MOL     -0.646320
     68 H28        -5.8540   -0.4020   -1.7140 hn        1 MOL      0.213925
     69 H29        -7.6090   -2.5930   -2.4790 h1        1 MOL      0.152541
     70 H30        -5.6520   -2.3240   -3.9970 hc        1 MOL      0.136346
     71 H31        -5.2970   -3.7650   -3.0410 hc        1 MOL      0.136346
     72 N7         -6.4810   -2.3680    0.4880 n         1 MOL     -0.304644
     73 C23        -6.3350   -2.9510    1.8400 c3        1 MOL      0.009736
     74 C24        -5.0400   -3.7050    2.0810 c         1 MOL      0.463835
     75 O13        -4.9770   -4.6370    2.8980 o         1 MOL     -0.557912
     76 H32        -6.4740   -1.3690    0.3570 hn        1 MOL      0.237677
     77 H33        -7.1550   -3.6030    2.1320 h1        1 MOL      0.049714
     78 H34        -6.1790   -2.1690    2.5860 h1        1 MOL      0.049714
     79 N8         -3.9690   -3.3640    1.3180 n         1 MOL      0.000303
     80 C25        -2.6910   -4.0920    1.4400 c3        1 MOL     -0.304319
     81 C26        -1.5550   -3.0770    1.3160 c         1 MOL      0.533529
     82 O14        -1.6580   -2.0440    0.6730 o         1 MOL     -0.773702
     83 C27        -2.5810   -5.2400    0.4230 c3        1 MOL      0.672254
     84 C28        -3.2820   -6.4840    0.8800 c3        1 MOL     -0.547509
     85 O15        -2.9470   -4.9000   -0.9490 oh        1 MOL     -0.686245
     86 H35        -4.0150   -2.5850    0.6840 hn        1 MOL      0.001719
     87 H36        -2.5670   -4.5140    2.4360 h1        1 MOL      0.091747
     88 H37        -1.5070   -5.4460    0.4770 h1        1 MOL     -0.110341
     89 H38        -3.3450   -4.0260   -0.8840 ho        1 MOL      0.402399
     90 H39        -4.3260   -6.4620    0.5650 hc        1 MOL      0.140499
     91 H40        -2.8000   -7.3230    0.3820 hc        1 MOL      0.140499
     92 H41        -3.3080   -6.6200    1.9580 hc        1 MOL      0.140499
     93 N9         -0.4230   -3.3690    1.9920 n         1 MOL     -0.147181
     94 C29         0.7840   -2.5980    2.1110 c3        1 MOL     -0.019144
     95 C30         1.8860   -3.2870    1.2190 c         1 MOL      0.281723
     96 O16         2.1140   -4.4860    1.3780 o         1 MOL     -0.517182
     97 C31         1.1840   -2.4260    3.6460 c3        1 MOL      0.089099
     98 C32         0.0610   -1.6570    4.4030 c3        1 MOL     -0.018425
     99 C33         2.5580   -1.7500    3.8430 c3        1 MOL     -0.230854
    100 C34         0.4030   -1.5440    5.9010 c3        1 MOL     -0.187118
    101 H42        -0.3590   -4.1700    2.5930 hn        1 MOL      0.184804
    102 H43         0.5670   -1.5820    1.7650 h1        1 MOL      0.192620
    103 H44         1.2760   -3.3550    4.1890 hc        1 MOL      0.008039
    104 H45        -0.8370   -2.2570    4.2110 hc        1 MOL      0.030516
    105 H46        -0.0560   -0.6710    3.9590 hc        1 MOL      0.030516
    106 H47         2.5530   -0.9120    3.1510 hc        1 MOL      0.047766
    107 H48         2.5930   -1.2930    4.8360 hc        1 MOL      0.047766
    108 H49         3.4010   -2.4270    3.6500 hc        1 MOL      0.047766
    109 H50         1.1020   -0.7820    6.2470 hc        1 MOL      0.051896
    110 H51        -0.5360   -1.3620    6.4190 hc        1 MOL      0.051896
    111 H52         0.7740   -2.4890    6.3190 hc        1 MOL      0.051896
    112 N10         2.4550   -2.5700    0.2210 n         1 MOL     -0.012486
    113 C35         3.6730   -3.0110   -0.5800 c3        1 MOL     -0.097337
    114 C36         4.9740   -2.5370    0.1130 c         1 MOL      0.398790
    115 O17         4.9520   -1.6540    0.9710 o         1 MOL     -0.328259
    116 C37         3.6340   -2.2900   -1.9030 c3        1 MOL      0.131426
    117 C38         2.4900   -2.7070   -2.8160 c3        1 MOL     -0.250581
    118 O18         3.5480   -0.8860   -1.7250 oh        1 MOL     -0.547241
    119 H53         2.1100   -1.6420    0.0250 hn        1 MOL      0.170414
    120 H54         3.6550   -4.0740   -0.8050 h1        1 MOL      0.097316
    121 H55         4.5860   -2.4640   -2.4040 h1        1 MOL      0.039900
    122 H56         2.6070   -0.7850   -1.5750 ho        1 MOL      0.402680
    123 H57         2.4360   -3.7780   -3.0230 hc        1 MOL      0.064484
    124 H58         1.5860   -2.3100   -2.3700 hc        1 MOL      0.064484
    125 H59         2.7080   -2.2960   -3.8030 hc        1 MOL      0.064484
    126 N11         6.1340   -2.9070   -0.3900 n         1 MOL     -0.290359
    127 C39         7.3760   -2.4600    0.2580 c3        1 MOL     -0.284922
    128 C40         7.6030   -0.9140    0.0790 c         1 MOL      0.444779
    129 O19         8.2700   -0.2360    0.8700 o         1 MOL     -0.482352
    130 C41         8.5620   -3.3220   -0.1990 c3        1 MOL      0.393553
    131 C42         8.4040   -4.6860    0.3800 c3        1 MOL     -0.305526
    132 O20         8.5150   -3.4590   -1.6050 oh        1 MOL     -0.608353
    133 H60         6.1830   -3.6000   -1.1230 hn        1 MOL      0.274835
    134 H61         7.3100   -2.5520    1.3520 h1        1 MOL      0.171411
    135 H62         9.5110   -2.9320    0.1640 h1        1 MOL      0.026092
    136 H63         8.8270   -2.6670   -2.0500 ho        1 MOL      0.374072
    137 H64         7.5630   -5.2130   -0.0620 hc        1 MOL      0.094298
    138 H65         9.2970   -5.2910    0.2050 hc        1 MOL      0.094298
    139 H66         8.2730   -4.6690    1.4690 hc        1 MOL      0.094298
    140 N12         6.9510   -0.3430   -0.9800 n         1 MOL     -0.368660
    141 C43         7.0030    1.0850   -1.3010 c3        1 MOL     -0.015923
    142 C44         6.1990    1.9130   -0.3520 c         1 MOL      0.373414
    143 O21         6.4500    3.1250   -0.1860 o         1 MOL     -0.524445
    144 C45         6.4720    1.2120   -2.7130 c3        1 MOL     -0.162926
    145 C46         6.4850    2.6340   -3.3420 c3        1 MOL      0.023676
    146 C47         6.2080    2.5880   -4.8360 c3        1 MOL      0.006051
    147 C48         7.2520    1.7860   -5.6620 c3        1 MOL     -0.032450
    148 N13         8.6750    2.1010   -5.5320 n4        1 MOL     -0.364661
    149 H67         6.3580   -1.0010   -1.4660 hn        1 MOL      0.219831
    150 H68         7.9850    1.5520   -1.2600 h1        1 MOL      0.106966
    151 H69         5.5060    0.7070   -2.7190 hc        1 MOL      0.054423
    152 H70         7.2110    0.6630   -3.2870 hc        1 MOL      0.054423
    153 H71         7.4250    3.1390   -3.1200 hc        1 MOL      0.028992
    154 H72         5.7320    3.2270   -2.8310 hc        1 MOL      0.028992
    155 H73         6.2480    3.6380   -5.1290 hc        1 MOL      0.049328
    156 H74         5.2500    2.1990   -5.1630 hc        1 MOL      0.049328
    157 H75         6.9300    1.8050   -6.6930 hx        1 MOL      0.099545
    158 H76         7.1410    0.7650   -5.2990 hx        1 MOL      0.099545
    159 H77         9.0290    2.0940   -4.5840 hn        1 MOL      0.311670
    160 H78         9.2610    1.4750   -6.0560 hn        1 MOL      0.311670
    161 H79         8.7470    3.0820   -5.7810 hn        1 MOL      0.311670
    162 N14         5.0650    1.3590    0.1920 n         1 MOL     -0.057229
    163 C49         4.2140    2.0330    1.2050 c3        1 MOL     -0.060740
    164 C50         4.7380    1.8250    2.6120 c         1 MOL      0.476102
    165 O22         4.6830    2.6620    3.4800 o         1 MOL     -0.551380
    166 C51         2.8340    1.3830    1.0710 c3        1 MOL      0.140439
    167 C52         2.1050    1.8190   -0.1970 c3        1 MOL     -0.433830
    168 C53         0.9230    0.9460   -0.3530 c         1 MOL      0.707761
    169 O23        -0.1610    1.4870   -0.6130 o         1 MOL     -0.687467
    170 O24         1.0400   -0.2540   -0.6420 o         1 MOL     -0.687467
    171 H80         4.8270    0.4420   -0.1380 hn        1 MOL      0.126029
    172 H81         4.0970    3.1020    1.0340 h1        1 MOL      0.062207
    173 H82         2.1840    1.6340    1.9060 hc        1 MOL      0.017481
    174 H83         3.0130    0.3110    1.0180 hc        1 MOL      0.017481
    175 H84         2.7600    1.7710   -1.0640 hc        1 MOL      0.127339
    176 H85         1.8150    2.8460    0.0100 hc        1 MOL      0.127339
    177 N15         5.3110    0.6210    2.8470 n         1 MOL     -0.158627
    178 C54         5.8790    0.1510    4.1090 c3        1 MOL     -0.264350
    179 H86         5.2670   -0.6600    4.5020 h1        1 MOL      0.103723
    180 H87         6.8930   -0.2090    3.9390 h1        1 MOL      0.103723
    181 H88         5.8990    0.9710    4.8270 h1        1 MOL      0.103723
    182 H89         5.1960   -0.0940    2.1400 hn        1 MOL      0.135436
    183 Ca1        -1.6040   -0.4660   -1.6100 Ca        1 MOL      1.732067
    184 O25        -0.7540   -3.0860   -1.7750 oh        1 MOL     -0.797138
    185 H90        -0.5210   -3.3320   -2.6730 ho        1 MOL      0.399031
    186 H91        -1.3060   -3.8080   -1.4670 ho        1 MOL      0.399031
    187 O26        -0.2050   -1.0530   -3.8110 oh        1 MOL     -0.797138
    188 H92         0.6600   -0.6390   -3.7650 ho        1 MOL      0.399031
    189 H93        -0.2630   -1.3780   -4.7100 ho        1 MOL      0.399031
@<TRIPOS>BOND
     1    1    2 1   
     2    1    4 1   
     3    1    5 1   
     4    1    6 1   
     5    2    3 2   
     6    2    7 1   
     7    7    8 1   
     8    7   15 1   
     9    8    9 1   
    10    8   11 1   
    11    8   16 1   
    12    9   10 2   
    13    9   19 1   
    14   11   12 1   
    15   11   17 1   
    16   11   18 1   
    17   12   13 1   
    18   12   14 1   
    19   19   20 1   
    20   19   28 1   
    21   20   21 1   
    22   20   23 1   
    23   20   29 1   
    24   21   22 2   
    25   21   41 1   
    26   23   24 1   
    27   23   30 1   
    28   23   31 1   
    29   24   25 1   
    30   24   32 1   
    31   24   33 1   
    32   25   26 1   
    33   25   34 1   
    34   25   35 1   
    35   26   27 1   
    36   26   36 1   
    37   26   37 1   
    38   27   38 1   
    39   27   39 1   
    40   27   40 1   
    41   41   42 1   
    42   41   49 1   
    43   42   43 1   
    44   42   45 1   
    45   42   50 1   
    46   43   44 2   
    47   43   53 1   
    48   45   46 1   
    49   45   51 1   
    50   45   52 1   
    51   46   47 1   
    52   46   48 1   
    53   53   54 1   
    54   53   57 1   
    55   54   55 1   
    56   54   58 1   
    57   54   59 1   
    58   55   56 2   
    59   55   60 1   
    60   60   61 1   
    61   60   68 1   
    62   61   62 1   
    63   61   64 1   
    64   61   69 1   
    65   62   63 2   
    66   62   72 1   
    67   64   65 1   
    68   64   70 1   
    69   64   71 1   
    70   65   66 1   
    71   65   67 1   
    72   72   73 1   
    73   72   76 1   
    74   73   74 1   
    75   73   77 1   
    76   73   78 1   
    77   74   75 2   
    78   74   79 1   
    79   79   80 1   
    80   79   86 1   
    81   80   81 1   
    82   80   83 1   
    83   80   87 1   
    84   81   82 2   
    85   81   93 1   
    86   83   84 1   
    87   83   85 1   
    88   83   88 1   
    89   84   90 1   
    90   84   91 1   
    91   84   92 1   
    92   85   89 1   
    93   93   94 1   
    94   93  101 1   
    95   94   95 1   
    96   94   97 1   
    97   94  102 1   
    98   95   96 2   
    99   95  112 1   
   100   97   98 1   
   101   97   99 1   
   102   97  103 1   
   103   98  100 1   
   104   98  104 1   
   105   98  105 1   
   106   99  106 1   
   107   99  107 1   
   108   99  108 1   
   109  100  109 1   
   110  100  110 1   
   111  100  111 1   
   112  112  113 1   
   113  112  119 1   
   114  113  114 1   
   115  113  116 1   
   116  113  120 1   
   117  114  115 2   
   118  114  126 1   
   119  116  117 1   
   120  116  118 1   
   121  116  121 1   
   122  117  123 1   
   123  117  124 1   
   124  117  125 1   
   125  118  122 1   
   126  126  127 1   
   127  126  133 1   
   128  127  128 1   
   129  127  130 1   
   130  127  134 1   
   131  128  129 2   
   132  128  140 1   
   133  130  131 1   
   134  130  132 1   
   135  130  135 1   
   136  131  137 1   
   137  131  138 1   
   138  131  139 1   
   139  132  136 1   
   140  140  141 1   
   141  140  149 1   
   142  141  142 1   
   143  141  144 1   
   144  141  150 1   
   145  142  143 2   
   146  142  162 1   
   147  144  145 1   
   148  144  151 1   
   149  144  152 1   
   150  145  146 1   
   151  145  153 1   
   152  145  154 1   
   153  146  147 1   
   154  146  155 1   
   155  146  156 1   
   156  147  148 1   
   157  147  157 1   
   158  147  158 1   
   159  148  159 1   
   160  148  160 1   
   161  148  161 1   
   162  162  163 1   
   163  162  171 1   
   164  163  164 1   
   165  163  166 1   
   166  163  172 1   
   167  164  165 2   
   168  164  177 1   
   169  166  167 1   
   170  166  173 1   
   171  166  174 1   
   172  167  168 1   
   173  167  175 1   
   174  167  176 1   
   175  168  169 1   
   176  168  170 1   
   177  177  178 1   
   178  177  182 1   
   179  178  179 1   
   180  178  180 1   
   181  178  181 1   
   182  184  185 1   
   183  184  186 1   
   184  187  188 1   
   185  187  189 1   
@<TRIPOS>SUBSTRUCTURE
     1 MOL         1 TEMP              0 ****  ****    0 ROOT
