@<TRIPOS>MOLECULE
MOL
  179   176     1     0     0
SMALL
resp


@<TRIPOS>ATOM
      1 C1         -0.0770    4.7830   -4.5870 c3        1 MOL     -0.231092
      2 C2          0.1710    4.0070   -3.2650 c         1 MOL      0.615786
      3 O1         -0.5030    4.3130   -2.3010 o         1 MOL     -0.543335
      4 H1         -1.1360    4.7400   -4.8390 hc        1 MOL      0.052113
      5 H2          0.2240    5.8230   -4.4600 hc        1 MOL      0.052113
      6 H3          0.5060    4.3300   -5.3890 hc        1 MOL      0.052113
      7 N1          1.2970    3.2670   -3.1720 n         1 MOL     -0.543835
      8 C3          1.7620    2.6050   -1.9590 c3        1 MOL      0.242368
      9 C4          2.6680    3.6050   -1.2250 c         1 MOL      0.412342
     10 O2          3.8850    3.5550   -1.3230 o         1 MOL     -0.452598
     11 C5          2.4340    1.2910   -2.3960 c3        1 MOL     -0.129645
     12 C6          3.1770    0.5010   -1.3110 c         1 MOL      0.720509
     13 O3          2.7570    0.6190   -0.1390 o         1 MOL     -0.720575
     14 O4          4.2420   -0.1650   -1.5850 o         1 MOL     -0.720575
     15 H4          1.8360    3.2080   -4.0300 hn        1 MOL      0.315798
     16 H5          0.8690    2.3900   -1.3760 h1        1 MOL      0.022976
     17 H6          3.1060    1.4970   -3.2310 hc        1 MOL      0.010274
     18 H7          1.7170    0.5690   -2.7720 hc        1 MOL      0.010274
     19 N2          2.0970    4.6420   -0.6310 n         1 MOL     -0.379629
     20 C7          2.8330    5.7870   -0.0690 c3        1 MOL     -0.020402
     21 C8          3.7440    5.5070    1.0370 c         1 MOL      0.478852
     22 O5          4.4820    6.4530    1.3090 o         1 MOL     -0.556093
     23 C9          1.7300    6.7620    0.4020 c3        1 MOL     -0.282055
     24 C10         0.9470    7.2540   -0.7600 c3        1 MOL      0.277839
     25 C11         0.2340    8.5680   -0.3220 c3        1 MOL      0.038979
     26 C12        -0.7630    9.0680   -1.3110 c3        1 MOL     -0.025225
     27 N3         -0.1000    9.2690   -2.6500 n4        1 MOL     -0.352176
     28 H8          1.1250    4.4180   -0.4980 hn        1 MOL      0.312517
     29 H9          3.4370    6.1930   -0.8820 h1        1 MOL      0.113335
     30 H10         2.1720    7.6470    0.8640 hc        1 MOL      0.102902
     31 H11         1.1090    6.1840    1.0840 hc        1 MOL      0.102902
     32 H12         0.3660    6.5030   -1.3060 hc        1 MOL     -0.082460
     33 H13         1.6980    7.5950   -1.4680 hc        1 MOL     -0.082460
     34 H14         0.9600    9.3390   -0.0610 hc        1 MOL      0.017318
     35 H15        -0.2430    8.4120    0.6470 hc        1 MOL      0.017318
     36 H16        -1.2110    9.9840   -0.9460 hx        1 MOL      0.100141
     37 H17        -1.5700    8.3460   -1.3470 hx        1 MOL      0.100141
     38 H18        -0.6600    9.8500   -3.2510 hn        1 MOL      0.321807
     39 H19         0.7790    9.7580   -2.5880 hn        1 MOL      0.321807
     40 H20        -0.0030    8.4130   -3.1770 hn        1 MOL      0.321807
     41 N4          3.6960    4.2990    1.6140 n         1 MOL     -0.283042
     42 C13         4.6740    3.7870    2.5810 c3        1 MOL     -0.005984
     43 C14         5.7290    2.8430    1.8790 c         1 MOL      0.467898
     44 O6          6.7380    2.4900    2.4650 o         1 MOL     -0.534061
     45 C15         3.8330    3.0700    3.6610 c3        1 MOL     -0.110944
     46 C16         2.9600    1.9510    3.1160 c         1 MOL      0.790653
     47 O7          3.3930    0.8100    3.1580 o         1 MOL     -0.762304
     48 O8          1.8660    2.1880    2.5930 o         1 MOL     -0.762304
     49 H21         2.8740    3.7610    1.3540 hn        1 MOL      0.237858
     50 H22         5.1460    4.6510    3.0450 h1        1 MOL      0.102890
     51 H23         3.1540    3.7830    4.1240 hc        1 MOL      0.026051
     52 H24         4.4350    2.7210    4.5080 hc        1 MOL      0.026051
     53 N5          5.5640    2.4600    0.5790 n         1 MOL     -0.141313
     54 C17         6.6310    1.8140   -0.1840 c3        1 MOL     -0.179204
     55 C18         6.9010    0.3300    0.0450 c         1 MOL      0.513481
     56 O9          7.9230   -0.2090   -0.3130 o         1 MOL     -0.576002
     57 H25         4.6840    2.5130    0.0760 hn        1 MOL      0.052468
     58 H26         7.5790    2.3280   -0.0370 h1        1 MOL      0.106255
     59 H27         6.4280    2.0350   -1.2240 h1        1 MOL      0.106255
     60 N6          6.0020   -0.3460    0.7790 n         1 MOL     -0.027795
     61 C19         6.2110   -1.7180    1.2270 c3        1 MOL     -0.340064
     62 C20         5.9660   -2.7920    0.2130 c         1 MOL      0.450367
     63 O10         6.1180   -3.9310    0.5710 o         1 MOL     -0.481315
     64 C21         5.3380   -1.8730    2.4760 c3        1 MOL      0.002977
     65 C22         3.8880   -2.1690    2.0950 c         1 MOL      0.382808
     66 N7          3.0670   -2.8350    2.9060 n         1 MOL     -0.900722
     67 O11         3.3830   -1.8270    1.0110 o         1 MOL     -0.119793
     68 H28         5.0990    0.0940    0.9080 hn        1 MOL      0.064868
     69 H29         7.2830   -1.7770    1.3950 h1        1 MOL      0.181318
     70 H30         5.4560   -1.0280    3.1570 hc        1 MOL      0.063544
     71 H31         5.6900   -2.7130    3.0810 hc        1 MOL      0.063544
     72 H32         3.4420   -3.1870    3.7710 hn        1 MOL      0.391120
     73 H33         2.1470   -3.1090    2.5980 hn        1 MOL      0.391120
     74 N8          5.6080   -2.5240   -1.0120 n         1 MOL     -0.274924
     75 C23         5.2090   -3.5500   -2.1050 c3        1 MOL     -0.311364
     76 C24         3.6750   -3.8650   -2.3360 c         1 MOL      0.756164
     77 O12         3.3730   -4.5080   -3.3270 o         1 MOL     -0.600606
     78 H34         5.3320   -1.5730   -1.2000 hn        1 MOL      0.315975
     79 H35         5.6970   -4.5180   -2.0700 h1        1 MOL      0.148065
     80 H36         5.5000   -3.0770   -3.0470 h1        1 MOL      0.148065
     81 N9          2.7700   -3.4210   -1.4720 n         1 MOL     -0.623682
     82 C25         1.3500   -3.8850   -1.2440 c3        1 MOL      0.324633
     83 C26         0.3840   -2.7880   -0.9460 c         1 MOL      0.696277
     84 O13         0.7210   -1.8390   -0.2170 o         1 MOL     -0.765265
     85 C27         1.2650   -5.0290   -0.2640 c3        1 MOL     -0.096652
     86 C28         2.3290   -6.1230   -0.4760 ca        1 MOL      0.121208
     87 C29         3.5850   -6.0180    0.1270 ca        1 MOL     -0.268980
     88 C30         2.0890   -7.2850   -1.3220 ca        1 MOL     -0.268980
     89 C31         4.5800   -7.0200    0.0070 ca        1 MOL     -0.163959
     90 C32         3.0970   -8.2290   -1.5780 ca        1 MOL     -0.163959
     91 C33         4.3570   -8.0600   -0.9460 ca        1 MOL      0.273956
     92 O14         5.3650   -8.9300   -1.0930 oh        1 MOL     -0.454493
     93 H37         2.9640   -2.7060   -0.7910 hn        1 MOL      0.262620
     94 H38         0.9770   -4.2660   -2.1920 h1        1 MOL     -0.001796
     95 H39         0.2870   -5.5170   -0.3190 hc        1 MOL     -0.005181
     96 H40         1.4230   -4.6310    0.7300 hc        1 MOL     -0.005181
     97 H41         3.6960   -5.2830    0.9020 ha        1 MOL      0.156284
     98 H42         1.1490   -7.3950   -1.8450 ha        1 MOL      0.156284
     99 H43         5.5310   -6.9300    0.5050 ha        1 MOL      0.124718
    100 H44         2.8370   -9.1330   -2.0950 ha        1 MOL      0.124718
    101 H45         5.1600   -9.5840   -1.7580 ho        1 MOL      0.354258
    102 N10        -0.8590   -2.9260   -1.4640 n         1 MOL     -0.677388
    103 C34        -1.9920   -2.0490   -1.2180 c3        1 MOL      0.014501
    104 C35        -3.2510   -2.9410   -0.9970 c         1 MOL      0.592317
    105 O15        -3.7670   -3.5780   -1.8930 o         1 MOL     -0.526144
    106 C36        -2.1540   -1.0830   -2.4950 c3        1 MOL      0.112607
    107 C37        -0.8710   -0.3650   -2.9260 c3        1 MOL      0.057573
    108 C38        -3.2160   -0.0410   -2.1170 c3        1 MOL     -0.338027
    109 C39        -1.0330    0.5890   -4.1520 c3        1 MOL     -0.268637
    110 H46        -0.9370   -3.5240   -2.2760 hn        1 MOL      0.340567
    111 H47        -1.8910   -1.5940   -0.2310 h1        1 MOL      0.109536
    112 H48        -2.4710   -1.7740   -3.2700 hc        1 MOL     -0.000181
    113 H49        -0.1310   -1.1440   -3.1190 hc        1 MOL      0.037145
    114 H50        -0.5050    0.2190   -2.0750 hc        1 MOL      0.037145
    115 H51        -4.0430   -0.5410   -1.6150 hc        1 MOL      0.082864
    116 H52        -2.6820    0.6940   -1.5130 hc        1 MOL      0.082864
    117 H53        -3.7050    0.4370   -2.9670 hc        1 MOL      0.082864
    118 H54        -0.0500    0.8850   -4.5300 hc        1 MOL      0.068822
    119 H55        -1.5790    0.1590   -4.9940 hc        1 MOL      0.068822
    120 H56        -1.6040    1.4880   -3.9020 hc        1 MOL      0.068822
    121 N11        -3.9160   -2.9510    0.1480 n         1 MOL     -0.442507
    122 C40        -5.2760   -3.4030    0.3960 c3        1 MOL     -0.025326
    123 C41        -6.3810   -2.5410   -0.2780 c         1 MOL      0.453215
    124 O16        -6.2040   -1.3080   -0.3250 o         1 MOL     -0.278304
    125 C42        -5.6270   -3.5850    1.8930 c3        1 MOL     -0.067489
    126 O17        -5.6160   -2.2810    2.5260 oh        1 MOL     -0.517514
    127 H57        -3.4210   -2.5750    0.9370 hn        1 MOL      0.299242
    128 H58        -5.4290   -4.3780   -0.0770 h1        1 MOL      0.071874
    129 H59        -4.8960   -4.2700    2.3140 h1        1 MOL      0.119299
    130 H60        -6.5790   -4.0650    2.1180 h1        1 MOL      0.119299
    131 H61        -4.7200   -1.9360    2.5200 ho        1 MOL      0.385175
    132 N12        -7.6150   -3.1250   -0.4160 n         1 MOL     -0.458243
    133 C43        -8.7760   -2.2700   -0.8500 c3        1 MOL      0.108981
    134 C44        -9.0690   -1.0660    0.0220 c         1 MOL      0.441570
    135 O18        -9.4750   -0.0050   -0.5350 o         1 MOL     -0.511631
    136 C45        -9.9650   -3.1830   -1.0030 c3        1 MOL     -0.377039
    137 H62        -7.8440   -4.0670   -0.1510 hn        1 MOL      0.287170
    138 H63        -8.5090   -1.7980   -1.7950 h1        1 MOL      0.105670
    139 H64       -10.8610   -2.6170   -1.2370 hc        1 MOL      0.120631
    140 H65        -9.8480   -3.7540   -1.9260 hc        1 MOL      0.120631
    141 H66       -10.2600   -3.7500   -0.1300 hc        1 MOL      0.120631
    142 N13        -8.7520   -1.0810    1.3200 n         1 MOL     -0.400445
    143 C46        -8.8390    0.1070    2.1860 c3        1 MOL      0.127020
    144 C47        -7.7390    1.1260    1.8450 c         1 MOL      0.452588
    145 O19        -8.0880    2.2740    1.7030 o         1 MOL     -0.527583
    146 C48        -8.6430   -0.3900    3.6990 c3        1 MOL     -0.302521
    147 H67        -8.4600   -1.9510    1.7530 hn        1 MOL      0.294605
    148 H68        -9.7490    0.7020    2.0570 h1        1 MOL      0.081389
    149 H69        -8.5890    0.4790    4.3570 hc        1 MOL      0.088391
    150 H70        -9.4900   -1.0180    3.9720 hc        1 MOL      0.088391
    151 H71        -7.6810   -0.8940    3.7790 hc        1 MOL      0.088391
    152 N14        -6.5310    0.6800    1.6230 n         1 MOL     -0.227748
    153 C49        -5.4350    1.5610    1.1440 c3        1 MOL     -0.114079
    154 C50        -5.6780    2.1020   -0.2280 c         1 MOL      0.384359
    155 O20        -5.3720    3.2870   -0.5730 o         1 MOL     -0.545859
    156 C51        -4.0780    0.8510    1.3790 c3        1 MOL      0.082020
    157 C52        -2.8990    1.9200    1.1060 c3        1 MOL     -0.376876
    158 C53        -1.5840    1.1650    1.1970 c         1 MOL      0.807436
    159 O21        -0.5190    1.6230    0.7340 o         1 MOL     -0.742320
    160 O22        -1.5110    0.0420    1.7680 o         1 MOL     -0.742320
    161 H72        -6.5320   -0.3250    1.5860 hn        1 MOL      0.075286
    162 H73        -5.3480    2.3900    1.8500 h1        1 MOL      0.137161
    163 H74        -3.9470   -0.0110    0.7200 hc        1 MOL     -0.012126
    164 H75        -4.0000    0.5350    2.4140 hc        1 MOL     -0.012126
    165 H76        -3.0690    2.7400    1.8050 hc        1 MOL      0.125324
    166 H77        -2.9620    2.3520    0.1070 hc        1 MOL      0.125324
    167 N15        -6.3760    1.3300   -1.1140 n         1 MOL      0.115777
    168 C54        -6.7940    1.8940   -2.3790 c3        1 MOL     -0.310164
    169 H78        -7.8690    1.7600   -2.4980 h1        1 MOL      0.099530
    170 H79        -6.5570    2.9570   -2.3990 h1        1 MOL      0.099530
    171 H80        -6.2730    1.3900   -3.1920 h1        1 MOL      0.099530
    172 H81        -6.6050    0.3720   -0.8930 hn        1 MOL      0.044767
    173 Ca1         1.2130   -0.2530    1.7400 Ca        1 MOL      1.699788
    174 O23         0.3490   -2.5620    2.5740 oh        1 MOL     -0.789711
    175 H82        -0.1340   -3.2120    2.0640 ho        1 MOL      0.397128
    176 H83         0.0510   -2.6910    3.4670 ho        1 MOL      0.397128
    177 O24         0.3930   -0.1210    4.4100 oh        1 MOL     -0.789711
    178 H84         1.0760    0.1780    5.0090 ho        1 MOL      0.397128
    179 H85         0.0010   -0.8750    4.8440 ho        1 MOL      0.397128
@<TRIPOS>BOND
     1    1    2 1   
     2    1    4 1   
     3    1    5 1   
     4    1    6 1   
     5    2    3 2   
     6    2    7 1   
     7    7    8 1   
     8    7   15 1   
     9    8    9 1   
    10    8   11 1   
    11    8   16 1   
    12    9   10 2   
    13    9   19 1   
    14   11   12 1   
    15   11   17 1   
    16   11   18 1   
    17   12   13 1   
    18   12   14 1   
    19   19   20 1   
    20   19   28 1   
    21   20   21 1   
    22   20   23 1   
    23   20   29 1   
    24   21   22 2   
    25   21   41 1   
    26   23   24 1   
    27   23   30 1   
    28   23   31 1   
    29   24   25 1   
    30   24   32 1   
    31   24   33 1   
    32   25   26 1   
    33   25   34 1   
    34   25   35 1   
    35   26   27 1   
    36   26   36 1   
    37   26   37 1   
    38   27   38 1   
    39   27   39 1   
    40   27   40 1   
    41   41   42 1   
    42   41   49 1   
    43   42   43 1   
    44   42   45 1   
    45   42   50 1   
    46   43   44 2   
    47   43   53 1   
    48   45   46 1   
    49   45   51 1   
    50   45   52 1   
    51   46   47 1   
    52   46   48 1   
    53   53   54 1   
    54   53   57 1   
    55   54   55 1   
    56   54   58 1   
    57   54   59 1   
    58   55   56 2   
    59   55   60 1   
    60   60   61 1   
    61   60   68 1   
    62   61   62 1   
    63   61   64 1   
    64   61   69 1   
    65   62   63 2   
    66   62   74 1   
    67   64   65 1   
    68   64   70 1   
    69   64   71 1   
    70   65   66 1   
    71   65   67 2   
    72   66   72 1   
    73   66   73 1   
    74   74   75 1   
    75   74   78 1   
    76   75   76 1   
    77   75   79 1   
    78   75   80 1   
    79   76   77 2   
    80   76   81 1   
    81   81   82 1   
    82   81   93 1   
    83   82   83 1   
    84   82   85 1   
    85   82   94 1   
    86   83   84 2   
    87   83  102 1   
    88   85   86 1   
    89   85   95 1   
    90   85   96 1   
    91   86   87 ar  
    92   86   88 ar  
    93   87   89 ar  
    94   87   97 1   
    95   88   90 ar  
    96   88   98 1   
    97   89   91 ar  
    98   89   99 1   
    99   90   91 ar  
   100   90  100 1   
   101   91   92 1   
   102   92  101 1   
   103  102  103 1   
   104  102  110 1   
   105  103  104 1   
   106  103  106 1   
   107  103  111 1   
   108  104  105 2   
   109  104  121 1   
   110  106  107 1   
   111  106  108 1   
   112  106  112 1   
   113  107  109 1   
   114  107  113 1   
   115  107  114 1   
   116  108  115 1   
   117  108  116 1   
   118  108  117 1   
   119  109  118 1   
   120  109  119 1   
   121  109  120 1   
   122  121  122 1   
   123  121  127 1   
   124  122  123 1   
   125  122  125 1   
   126  122  128 1   
   127  123  124 2   
   128  123  132 1   
   129  125  126 1   
   130  125  129 1   
   131  125  130 1   
   132  126  131 1   
   133  132  133 1   
   134  132  137 1   
   135  133  134 1   
   136  133  136 1   
   137  133  138 1   
   138  134  135 2   
   139  134  142 1   
   140  136  139 1   
   141  136  140 1   
   142  136  141 1   
   143  142  143 1   
   144  142  147 1   
   145  143  144 1   
   146  143  146 1   
   147  143  148 1   
   148  144  145 2   
   149  144  152 1   
   150  146  149 1   
   151  146  150 1   
   152  146  151 1   
   153  152  153 1   
   154  152  161 1   
   155  153  154 1   
   156  153  156 1   
   157  153  162 1   
   158  154  155 2   
   159  154  167 1   
   160  156  157 1   
   161  156  163 1   
   162  156  164 1   
   163  157  158 1   
   164  157  165 1   
   165  157  166 1   
   166  158  159 1   
   167  158  160 1   
   168  167  168 1   
   169  167  172 1   
   170  168  169 1   
   171  168  170 1   
   172  168  171 1   
   173  174  175 1   
   174  174  176 1   
   175  177  178 1   
   176  177  179 1   
@<TRIPOS>SUBSTRUCTURE
     1 MOL         1 TEMP              0 ****  ****    0 ROOT
