@<TRIPOS>MOLECULE
MOL
  175   173     1     0     0
SMALL
resp


@<TRIPOS>ATOM
      1 C1          0.3990    4.1950    5.6110 c3        1 MOL     -0.303121
      2 C2         -0.3150    4.3720    4.1910 c         1 MOL      0.621179
      3 O1          0.3350    4.8900    3.1890 o         1 MOL     -0.560304
      4 H1          0.0670    3.2640    6.0700 hc        1 MOL      0.079542
      5 H2          1.4790    4.1670    5.4740 hc        1 MOL      0.079542
      6 H3          0.1350    5.0320    6.2580 hc        1 MOL      0.079542
      7 N1         -1.5650    3.9720    4.0340 n         1 MOL     -0.545702
      8 C3         -2.2130    3.6380    2.6930 c3        1 MOL      0.082816
      9 C4         -2.4470    4.8010    1.7050 c         1 MOL      0.627698
     10 O2         -2.8850    5.8880    2.0800 o         1 MOL     -0.566659
     11 C5         -3.5970    3.0640    2.8350 c3        1 MOL     -0.217102
     12 C6         -4.2460    2.5180    1.5380 c         1 MOL      0.734574
     13 O3         -5.4650    2.6810    1.4260 o         1 MOL     -0.667957
     14 O4         -3.5770    1.9770    0.6100 o         1 MOL     -0.667957
     15 H4         -1.9860    3.6330    4.8820 hn        1 MOL      0.302554
     16 H5         -1.5560    2.9520    2.1580 h1        1 MOL      0.078812
     17 H6         -4.2810    3.7490    3.3330 hc        1 MOL      0.031085
     18 H7         -3.5270    2.1700    3.4550 hc        1 MOL      0.031085
     19 N2         -2.1120    4.6180    0.3900 n         1 MOL     -0.499590
     20 C7         -2.2060    5.6230   -0.6590 c3        1 MOL      0.333707
     21 C8         -2.7900    5.0370   -2.0020 c         1 MOL      0.511069
     22 O5         -2.5450    5.6920   -2.9570 o         1 MOL     -0.562435
     23 C9         -0.9660    6.5630   -0.7760 c3        1 MOL     -0.243043
     24 H8         -1.4920    3.8390    0.2190 hn        1 MOL      0.254729
     25 H9         -2.9680    6.3490   -0.3810 h1        1 MOL     -0.014071
     26 H10        -1.1470    7.4910   -1.3240 hc        1 MOL      0.054876
     27 H11        -0.6510    6.8990    0.2120 hc        1 MOL      0.054876
     28 H12        -0.1520    6.0260   -1.2660 hc        1 MOL      0.054876
     29 N3         -3.5370    3.9250   -1.9770 n         1 MOL     -0.393250
     30 C10        -4.3280    3.3520   -3.1150 c3        1 MOL      0.058638
     31 C11        -5.6480    2.6670   -2.7880 c         1 MOL      0.336262
     32 O6         -6.6080    2.7170   -3.6680 o         1 MOL     -0.557357
     33 C12        -3.4430    2.3860   -3.8980 c3        1 MOL     -0.039394
     34 C13        -2.9220    1.3280   -2.8850 c         1 MOL      0.642831
     35 O7         -3.6890    0.5950   -2.2390 o         1 MOL     -0.721699
     36 O8         -1.7280    1.2470   -2.5960 o         1 MOL     -0.721699
     37 H13        -3.7080    3.5660   -1.0470 hn        1 MOL      0.192875
     38 H14        -4.5270    4.1350   -3.8450 h1        1 MOL      0.070793
     39 H15        -2.6380    2.9180   -4.4130 hc        1 MOL      0.025872
     40 H16        -4.0040    1.9340   -4.7250 hc        1 MOL      0.025872
     41 N4         -5.9110    2.1850   -1.5610 n         1 MOL     -0.089584
     42 C14        -7.1730    1.5580   -1.0500 c3        1 MOL     -0.199413
     43 C15        -7.4180    0.1430   -1.4820 c         1 MOL      0.536281
     44 O9         -8.5900   -0.2500   -1.5630 o         1 MOL     -0.597832
     45 H17        -5.2090    2.2980   -0.8300 hn        1 MOL      0.153141
     46 H18        -8.0570    2.0920   -1.4040 h1        1 MOL      0.105282
     47 H19        -7.1500    1.6210    0.0330 h1        1 MOL      0.105282
     48 N5         -6.3060   -0.6200   -1.6440 n         1 MOL     -0.184303
     49 C16        -6.3410   -2.1250   -2.0650 c3        1 MOL     -0.164133
     50 C17        -6.3400   -3.1460   -0.8910 c         1 MOL      0.437068
     51 O10        -6.4060   -4.3330   -1.2440 o         1 MOL     -0.512467
     52 C18        -5.1770   -2.4270   -3.0600 c3        1 MOL     -0.021194
     53 C19        -3.7930   -2.4340   -2.4080 c         1 MOL      0.567326
     54 N6         -2.7590   -2.7870   -3.1530 n         1 MOL     -0.660701
     55 O11        -3.5190   -2.1490   -1.2440 o         1 MOL     -0.440028
     56 H20        -5.4180   -0.1440   -1.5840 hn        1 MOL      0.108982
     57 H21        -7.2940   -2.3390   -2.5540 h1        1 MOL      0.129040
     58 H22        -5.1300   -1.7520   -3.9130 hc        1 MOL      0.044188
     59 H23        -5.3490   -3.3980   -3.5250 hc        1 MOL      0.044188
     60 H24        -2.8260   -3.0210   -4.1340 hn        1 MOL      0.314430
     61 H25        -1.8100   -2.8210   -2.8160 hn        1 MOL      0.314430
     62 N7         -6.3300   -2.7260    0.3290 n         1 MOL     -0.213073
     63 C20        -6.3940   -3.6680    1.4490 c3        1 MOL     -0.125982
     64 C21        -5.0990   -4.4600    1.7210 c         1 MOL      0.661125
     65 O12        -5.2190   -5.4500    2.4010 o         1 MOL     -0.599963
     66 H26        -6.3660   -1.7330    0.5200 hn        1 MOL      0.239123
     67 H27        -7.2650   -4.3200    1.4010 h1        1 MOL      0.066038
     68 H28        -6.4590   -3.0100    2.3080 h1        1 MOL      0.066038
     69 N8         -3.9180   -3.9610    1.2850 n         1 MOL     -0.409182
     70 C22        -2.5950   -4.5230    1.5340 c3        1 MOL      0.044877
     71 C23        -1.5270   -3.4230    1.6400 c         1 MOL      0.417816
     72 O13        -1.7810   -2.3210    1.2170 o         1 MOL     -0.372192
     73 C24        -2.1960   -5.4750    0.4140 c3        1 MOL      0.398511
     74 C25        -2.7400   -6.8580    0.6720 c3        1 MOL     -0.314559
     75 O14        -2.7630   -5.0500   -0.9040 oh        1 MOL     -0.555122
     76 H29        -3.9760   -3.1960    0.6280 hn        1 MOL      0.206857
     77 H30        -2.5010   -4.9540    2.5340 h1        1 MOL      0.042963
     78 H31        -1.1120   -5.5570    0.3800 h1        1 MOL     -0.013204
     79 H32        -2.4380   -4.1560   -1.0190 ho        1 MOL      0.276141
     80 H33        -3.7240   -6.8700    1.1160 hc        1 MOL      0.072943
     81 H34        -2.7600   -7.4560   -0.2370 hc        1 MOL      0.072943
     82 H35        -2.0720   -7.3670    1.3720 hc        1 MOL      0.072943
     83 N9         -0.3270   -3.6800    2.2350 n         1 MOL     -0.486779
     84 C26         0.8340   -2.8160    2.0990 c3        1 MOL      0.131526
     85 C27         1.5770   -3.1480    0.7940 c         1 MOL      0.437381
     86 O15         1.8800   -4.3170    0.5600 o         1 MOL     -0.590898
     87 C28         1.6880   -2.8860    3.4580 c3        1 MOL      0.028643
     88 C29         0.9880   -2.0440    4.5190 c3        1 MOL      0.063955
     89 C30         3.1560   -2.4520    3.2540 c3        1 MOL     -0.106799
     90 C31         1.4880   -2.2360    5.9630 c3        1 MOL     -0.132773
     91 H36        -0.1290   -4.5860    2.6410 hn        1 MOL      0.274189
     92 H37         0.6060   -1.7490    2.0780 h1        1 MOL     -0.055431
     93 H38         1.5810   -3.9180    3.8050 hc        1 MOL      0.005942
     94 H39        -0.0940   -2.1530    4.5250 hc        1 MOL     -0.002134
     95 H40         1.1780   -0.9770    4.3770 hc        1 MOL     -0.002134
     96 H41         3.2580   -1.3680    3.2230 hc        1 MOL      0.015212
     97 H42         3.7670   -2.8250    4.0740 hc        1 MOL      0.015212
     98 H43         3.5580   -2.9050    2.3520 hc        1 MOL      0.015212
     99 H44         1.8240   -3.2800    5.9940 hc        1 MOL      0.022213
    100 H45         2.3430   -1.6210    6.2180 hc        1 MOL      0.022213
    101 H46         0.6690   -2.0880    6.6620 hc        1 MOL      0.022213
    102 N10         1.9280   -2.1120    0.0790 n         1 MOL     -0.050558
    103 C32         2.6660   -2.0610   -1.1700 c3        1 MOL      0.047911
    104 C33         4.1570   -1.6650   -0.8630 c         1 MOL      0.355576
    105 O16         4.4000   -1.0380    0.1590 o         1 MOL     -0.316452
    106 C34         1.8310   -1.1840   -2.1530 c3        1 MOL     -0.224090
    107 C35         0.4530   -1.7720   -2.4290 c         1 MOL      0.716375
    108 O17        -0.4390   -1.6740   -1.5670 o         1 MOL     -0.671301
    109 O18         0.3140   -2.3070   -3.5250 o         1 MOL     -0.671301
    110 H47         1.5630   -1.2120    0.3710 hn        1 MOL      0.060654
    111 H48         2.5590   -3.0740   -1.5590 h1        1 MOL      0.044732
    112 H49         2.3830   -1.1810   -3.0870 hc        1 MOL      0.068743
    113 H50         1.7380   -0.1390   -1.8300 hc        1 MOL      0.068743
    114 N11         5.0870   -1.8390   -1.7800 n         1 MOL     -0.553109
    115 C36         6.4710   -1.5210   -1.5790 c3        1 MOL      0.397176
    116 C37         6.7280   -0.0330   -1.1850 c         1 MOL      0.356176
    117 O19         7.2430    0.1750   -0.1270 o         1 MOL     -0.460506
    118 C38         7.4050   -2.0750   -2.6760 c3        1 MOL     -0.353815
    119 C39         8.8290   -1.7880   -2.3770 ca        1 MOL      0.228127
    120 C40         9.4270   -2.4210   -1.2470 ca        1 MOL     -0.249821
    121 C41         9.5280   -0.8830   -3.1470 ca        1 MOL     -0.249821
    122 C42        10.7870   -2.2380   -0.9640 ca        1 MOL     -0.058960
    123 C43        10.8370   -0.5670   -2.7670 ca        1 MOL     -0.058960
    124 C44        11.5060   -1.2490   -1.7360 ca        1 MOL     -0.177240
    125 H51         4.8630   -2.3630   -2.6070 hn        1 MOL      0.310858
    126 H52         6.6960   -1.9900   -0.6210 h1        1 MOL      0.020641
    127 H53         7.1080   -1.5590   -3.5860 hc        1 MOL      0.095884
    128 H54         7.3180   -3.1600   -2.7510 hc        1 MOL      0.095884
    129 H55         8.8630   -3.1380   -0.6660 ha        1 MOL      0.142773
    130 H56         9.0300   -0.3400   -3.9390 ha        1 MOL      0.142773
    131 H57        11.2500   -2.7420   -0.1240 ha        1 MOL      0.106548
    132 H58        11.3020    0.2520   -3.2900 ha        1 MOL      0.106548
    133 H59        12.5310   -1.0240   -1.4840 ha        1 MOL      0.117765
    134 N12         6.2500    1.0420   -1.8950 n         1 MOL     -0.114624
    135 C45         6.2770    2.3920   -1.3600 c3        1 MOL      0.049075
    136 C46         5.7270    2.5930    0.0610 c         1 MOL      0.271033
    137 O20         6.2550    3.4300    0.8340 o         1 MOL     -0.491502
    138 C47         5.4270    3.2190   -2.3550 c3        1 MOL     -0.081766
    139 C48         5.7560    2.4930   -3.6040 c3        1 MOL      0.058117
    140 C49         5.7110    1.0500   -3.2180 c3        1 MOL     -0.008489
    141 H60         7.2640    2.8390   -1.3260 h1        1 MOL      0.051780
    142 H61         4.3790    2.9700   -2.2080 hc        1 MOL      0.062035
    143 H62         5.6480    4.2790   -2.4750 hc        1 MOL      0.062035
    144 H63         5.0050    2.7410   -4.3490 hc        1 MOL      0.000724
    145 H64         6.7130    2.8450   -4.0020 hc        1 MOL      0.000724
    146 H65         4.7240    0.5870   -3.2380 h1        1 MOL      0.001141
    147 H66         6.3830    0.5000   -3.8770 h1        1 MOL      0.001141
    148 N13         4.6740    1.8660    0.4500 n         1 MOL     -0.238922
    149 C50         4.0270    2.0040    1.7910 c3        1 MOL     -0.018292
    150 C51         4.8360    1.2980    2.9170 c         1 MOL      0.426226
    151 O21         4.8980    1.8980    4.0200 o         1 MOL     -0.584838
    152 C52         2.5490    1.4190    1.8110 c3        1 MOL      0.064217
    153 C53         1.6570    1.9610    0.6870 c3        1 MOL     -0.201738
    154 C54         0.2500    1.3450    0.6440 c         1 MOL      0.589299
    155 O22         0.0580    0.1730    0.9940 o         1 MOL     -0.620311
    156 O23        -0.6300    1.9560    0.1020 o         1 MOL     -0.620311
    157 H67         4.2390    1.2760   -0.2450 hn        1 MOL      0.227668
    158 H68         3.9340    3.0600    2.0710 h1        1 MOL      0.105040
    159 H69         2.1450    1.7380    2.7680 hc        1 MOL      0.010958
    160 H70         2.5730    0.3280    1.8170 hc        1 MOL      0.010958
    161 H71         2.0910    1.9310   -0.3060 hc        1 MOL      0.057234
    162 H72         1.5510    3.0080    0.9550 hc        1 MOL      0.057234
    163 N14         5.4910    0.2220    2.6050 n         1 MOL      0.052877
    164 C55         6.5240   -0.3930    3.4220 c3        1 MOL     -0.170656
    165 H73         6.0970   -1.2220    3.9850 h1        1 MOL      0.063551
    166 H74         7.3230   -0.7630    2.7800 h1        1 MOL      0.063551
    167 H75         6.9280    0.3460    4.1150 h1        1 MOL      0.063551
    168 H76         5.3980   -0.1820    1.6830 hn        1 MOL      0.042273
    169 Ca1        -2.1700   -0.0510   -0.2450 Ca        1 MOL      1.681785
    170 O24        -2.0750    0.1560    2.8150 oh        1 MOL     -0.865732
    171 H77        -1.1190    0.2100    2.7590 ho        1 MOL      0.408594
    172 H78        -2.2910    0.6160    3.6260 ho        1 MOL      0.408594
    173 O25        -4.3230   -0.9090    1.6140 oh        1 MOL     -0.865732
    174 H79        -3.6220   -0.6870    2.2240 ho        1 MOL      0.408594
    175 H80        -5.1310   -0.7000    2.0930 ho        1 MOL      0.408594
@<TRIPOS>BOND
     1    1    2 1   
     2    1    4 1   
     3    1    5 1   
     4    1    6 1   
     5    2    3 2   
     6    2    7 1   
     7    7    8 1   
     8    7   15 1   
     9    8    9 1   
    10    8   11 1   
    11    8   16 1   
    12    9   10 2   
    13    9   19 1   
    14   11   12 1   
    15   11   17 1   
    16   11   18 1   
    17   12   13 1   
    18   12   14 1   
    19   19   20 1   
    20   19   24 1   
    21   20   21 1   
    22   20   23 1   
    23   20   25 1   
    24   21   22 2   
    25   21   29 1   
    26   23   26 1   
    27   23   27 1   
    28   23   28 1   
    29   29   30 1   
    30   29   37 1   
    31   30   31 1   
    32   30   33 1   
    33   30   38 1   
    34   31   32 2   
    35   31   41 1   
    36   33   34 1   
    37   33   39 1   
    38   33   40 1   
    39   34   35 1   
    40   34   36 1   
    41   41   42 1   
    42   41   45 1   
    43   42   43 1   
    44   42   46 1   
    45   42   47 1   
    46   43   44 2   
    47   43   48 1   
    48   48   49 1   
    49   48   56 1   
    50   49   50 1   
    51   49   52 1   
    52   49   57 1   
    53   50   51 2   
    54   50   62 1   
    55   52   53 1   
    56   52   58 1   
    57   52   59 1   
    58   53   54 1   
    59   53   55 2   
    60   54   60 1   
    61   54   61 1   
    62   62   63 1   
    63   62   66 1   
    64   63   64 1   
    65   63   67 1   
    66   63   68 1   
    67   64   65 2   
    68   64   69 1   
    69   69   70 1   
    70   69   76 1   
    71   70   71 1   
    72   70   73 1   
    73   70   77 1   
    74   71   72 2   
    75   71   83 1   
    76   73   74 1   
    77   73   75 1   
    78   73   78 1   
    79   74   80 1   
    80   74   81 1   
    81   74   82 1   
    82   75   79 1   
    83   83   84 1   
    84   83   91 1   
    85   84   85 1   
    86   84   87 1   
    87   84   92 1   
    88   85   86 2   
    89   85  102 1   
    90   87   88 1   
    91   87   89 1   
    92   87   93 1   
    93   88   90 1   
    94   88   94 1   
    95   88   95 1   
    96   89   96 1   
    97   89   97 1   
    98   89   98 1   
    99   90   99 1   
   100   90  100 1   
   101   90  101 1   
   102  102  103 1   
   103  102  110 1   
   104  103  104 1   
   105  103  106 1   
   106  103  111 1   
   107  104  105 2   
   108  104  114 1   
   109  106  107 1   
   110  106  112 1   
   111  106  113 1   
   112  107  108 1   
   113  107  109 1   
   114  114  115 1   
   115  114  125 1   
   116  115  116 1   
   117  115  118 1   
   118  115  126 1   
   119  116  117 2   
   120  116  134 1   
   121  118  119 1   
   122  118  127 1   
   123  118  128 1   
   124  119  120 ar  
   125  119  121 ar  
   126  120  122 ar  
   127  120  129 1   
   128  121  123 ar  
   129  121  130 1   
   130  122  124 ar  
   131  122  131 1   
   132  123  124 ar  
   133  123  132 1   
   134  124  133 1   
   135  134  135 1   
   136  134  140 1   
   137  135  136 1   
   138  135  138 1   
   139  135  141 1   
   140  136  137 2   
   141  136  148 1   
   142  138  139 1   
   143  138  142 1   
   144  138  143 1   
   145  139  140 1   
   146  139  144 1   
   147  139  145 1   
   148  140  146 1   
   149  140  147 1   
   150  148  149 1   
   151  148  157 1   
   152  149  150 1   
   153  149  152 1   
   154  149  158 1   
   155  150  151 2   
   156  150  163 1   
   157  152  153 1   
   158  152  159 1   
   159  152  160 1   
   160  153  154 1   
   161  153  161 1   
   162  153  162 1   
   163  154  155 1   
   164  154  156 1   
   165  163  164 1   
   166  163  168 1   
   167  164  165 1   
   168  164  166 1   
   169  164  167 1   
   170  170  171 1   
   171  170  172 1   
   172  173  174 1   
   173  173  175 1   
@<TRIPOS>SUBSTRUCTURE
     1 MOL         1 TEMP              0 ****  ****    0 ROOT
