@<TRIPOS>MOLECULE
MOL
  172   171     1     0     0
SMALL
resp


@<TRIPOS>ATOM
      1 C1          0.4360    4.3020    5.2020 c3        1 MOL     -0.568051
      2 C2         -0.0980    4.4030    3.8290 c         1 MOL      0.725672
      3 O1          0.6410    4.3580    2.8410 o         1 MOL     -0.574213
      4 H1          1.0140    3.3840    5.3000 hc        1 MOL      0.142833
      5 H2          1.0780    5.1590    5.4070 hc        1 MOL      0.142833
      6 H3         -0.3900    4.2890    5.9140 hc        1 MOL      0.142833
      7 N1         -1.4090    4.3920    3.7060 n         1 MOL     -0.596933
      8 C3         -2.0350    3.9570    2.4470 c3        1 MOL      0.187644
      9 C4         -2.1610    5.0650    1.3940 c         1 MOL      0.543562
     10 O2         -2.3380    6.2500    1.7850 o         1 MOL     -0.578446
     11 C5         -3.4090    3.2940    2.7470 c3        1 MOL     -0.272325
     12 C6         -4.0120    2.7590    1.4290 c         1 MOL      0.618065
     13 O3         -5.2020    3.2040    1.1730 o         1 MOL     -0.655530
     14 O4         -3.3400    2.0720    0.6490 o         1 MOL     -0.655530
     15 H4         -1.9560    4.4230    4.5450 hn        1 MOL      0.316784
     16 H5         -1.3200    3.2110    2.1040 h1        1 MOL      0.093907
     17 H6         -4.0460    4.0540    3.1890 hc        1 MOL      0.061173
     18 H7         -3.2270    2.5010    3.4800 hc        1 MOL      0.061173
     19 N2         -2.1910    4.7070    0.0820 n         1 MOL     -0.580733
     20 C7         -2.5480    5.5960   -1.0090 c3        1 MOL      0.548236
     21 C8         -3.6660    5.0240   -1.9600 c         1 MOL      0.249820
     22 O5         -3.9810    5.7020   -2.9520 o         1 MOL     -0.559504
     23 C9         -1.2820    5.9680   -1.8040 c3        1 MOL     -0.480160
     24 H8         -2.0160    3.7690   -0.2380 hn        1 MOL      0.389513
     25 H9         -2.9790    6.5150   -0.6310 h1        1 MOL     -0.007544
     26 H10        -1.0150    5.3330   -2.6380 hc        1 MOL      0.108027
     27 H11        -1.3140    7.0420   -1.9860 hc        1 MOL      0.108027
     28 H12        -0.4150    5.9010   -1.1500 hc        1 MOL      0.108027
     29 N3         -4.2270    3.8210   -1.7790 n         1 MOL     -0.159127
     30 C10        -5.1450    3.1320   -2.8040 c3        1 MOL      0.057303
     31 C11        -6.1850    2.1630   -2.1950 c         1 MOL      0.297467
     32 O6         -7.0630    1.7020   -2.9180 o         1 MOL     -0.554997
     33 C12        -4.1280    2.3980   -3.7520 c3        1 MOL     -0.091791
     34 C13        -3.2000    1.3330   -3.0930 c         1 MOL      0.680917
     35 O7         -3.5600    0.7030   -2.0810 o         1 MOL     -0.682721
     36 O8         -2.1570    1.0530   -3.7590 o         1 MOL     -0.682721
     37 H13        -4.0270    3.2260   -0.9810 hn        1 MOL      0.119644
     38 H14        -5.7360    3.8810   -3.3210 h1        1 MOL      0.081481
     39 H15        -3.4510    3.1600   -4.1170 hc        1 MOL      0.026735
     40 H16        -4.6750    2.0620   -4.6380 hc        1 MOL      0.026735
     41 N4         -5.9780    1.6590   -0.9900 n         1 MOL      0.176668
     42 C14        -7.0540    0.9830   -0.2230 c3        1 MOL     -0.284129
     43 C15        -7.2600   -0.4680   -0.6960 c         1 MOL      0.519124
     44 O9         -8.2580   -1.1970   -0.4200 o         1 MOL     -0.620707
     45 H17        -5.1870    2.0690   -0.5090 hn        1 MOL     -0.027270
     46 H18        -8.0240    1.4670   -0.3370 h1        1 MOL      0.120278
     47 H19        -6.8160    0.8670    0.8320 h1        1 MOL      0.120278
     48 N5         -6.1980   -1.0220   -1.3270 n         1 MOL     -0.207153
     49 C16        -6.0940   -2.3080   -2.0170 c3        1 MOL     -0.010153
     50 C17        -6.0210   -3.5710   -1.0610 c         1 MOL      0.411792
     51 O10        -5.6270   -4.6520   -1.4950 o         1 MOL     -0.488282
     52 C18        -4.9660   -2.3130   -3.0440 c3        1 MOL     -0.138666
     53 C19        -3.5310   -2.3670   -2.4670 c         1 MOL      0.383360
     54 N6         -2.6180   -2.7320   -3.2920 n         1 MOL     -0.483932
     55 O11        -3.2620   -2.1250   -1.2970 o         1 MOL     -0.473139
     56 H20        -5.3220   -0.5110   -1.3680 hn        1 MOL      0.176033
     57 H21        -6.9940   -2.3870   -2.6240 h1        1 MOL      0.096294
     58 H22        -5.1110   -1.4290   -3.6700 hc        1 MOL      0.054590
     59 H23        -4.9810   -3.2240   -3.6520 hc        1 MOL      0.054590
     60 H24        -2.7820   -2.8510   -4.2790 hn        1 MOL      0.323183
     61 H25        -1.7210   -2.7050   -2.8420 hn        1 MOL      0.323183
     62 N7         -6.3900   -3.4230    0.2180 n         1 MOL     -0.335081
     63 C20        -6.2170   -4.4090    1.2940 c3        1 MOL     -0.137945
     64 C21        -4.8070   -4.7470    1.8090 c         1 MOL      0.502516
     65 O12        -4.7860   -5.5890    2.6850 o         1 MOL     -0.590013
     66 H26        -6.8790   -2.5730    0.4610 hn        1 MOL      0.289620
     67 H27        -6.6250   -5.3850    1.0370 h1        1 MOL      0.097477
     68 H28        -6.8260   -4.0600    2.1350 h1        1 MOL      0.097477
     69 N8         -3.7970   -4.1490    1.3240 n         1 MOL     -0.235084
     70 C22        -2.3790   -4.5570    1.6520 c3        1 MOL     -0.085280
     71 C23        -1.4890   -3.3050    1.8530 c         1 MOL      0.569466
     72 O13        -1.7100   -2.2570    1.2640 o         1 MOL     -0.583840
     73 C24        -1.6200   -5.5160    0.6830 c3        1 MOL      0.578015
     74 C25        -2.3760   -6.8500    0.6690 c3        1 MOL     -0.369397
     75 O14        -1.6610   -5.0860   -0.6290 oh        1 MOL     -0.638956
     76 H29        -3.8960   -3.3800    0.6720 hn        1 MOL      0.224286
     77 H30        -2.3660   -4.9790    2.6520 h1        1 MOL      0.054458
     78 H31        -0.5930   -5.6190    1.0120 h1        1 MOL     -0.058931
     79 H32        -1.4230   -4.1590   -0.6070 ho        1 MOL      0.391351
     80 H33        -3.4410   -6.7210    0.4410 hc        1 MOL      0.083981
     81 H34        -1.8940   -7.5630    0.0080 hc        1 MOL      0.083981
     82 H35        -2.2300   -7.2150    1.6880 hc        1 MOL      0.083981
     83 N9         -0.3830   -3.4390    2.6010 n         1 MOL     -0.549329
     84 C26         0.6990   -2.4980    2.5460 c3        1 MOL     -0.065734
     85 C27         1.5800   -2.8390    1.3710 c         1 MOL      0.481003
     86 O15         1.8790   -4.0120    1.1390 o         1 MOL     -0.565285
     87 C28         1.5570   -2.4260    3.8870 c3        1 MOL      0.385975
     88 C29         0.5940   -2.0030    5.0780 c3        1 MOL     -0.237974
     89 C30         2.6670   -1.3360    3.8030 c3        1 MOL     -0.083888
     90 C31         1.3380   -1.8840    6.4580 c3        1 MOL     -0.048034
     91 H36        -0.2540   -4.3390    3.0370 hn        1 MOL      0.295577
     92 H37         0.3990   -1.4630    2.3840 h1        1 MOL      0.141755
     93 H38         2.0290   -3.3850    4.1190 hc        1 MOL     -0.068863
     94 H39        -0.2240   -2.7140    5.2320 hc        1 MOL      0.050713
     95 H40         0.2180   -1.0460    4.7280 hc        1 MOL      0.050713
     96 H41         2.1970   -0.3590    3.6360 hc        1 MOL      0.004764
     97 H42         3.3140   -1.4250    4.6690 hc        1 MOL      0.004764
     98 H43         3.2780   -1.7310    2.9930 hc        1 MOL      0.004764
     99 H44         0.8060   -1.7710    7.4060 hc        1 MOL      0.015588
    100 H45         1.9390   -2.7850    6.5800 hc        1 MOL      0.015588
    101 H46         1.9860   -1.0250    6.2850 hc        1 MOL      0.015588
    102 N10         1.8680   -1.8140    0.5420 n         1 MOL     -0.089697
    103 C32         2.6360   -2.0030   -0.6980 c3        1 MOL     -0.002201
    104 C33         3.9880   -1.3970   -0.5070 c         1 MOL      0.445603
    105 O16         4.2470   -0.7610    0.5200 o         1 MOL     -0.390480
    106 C34         1.8560   -1.3890   -1.8620 c3        1 MOL     -0.255827
    107 C35         0.4830   -2.0070   -2.1730 c         1 MOL      0.784153
    108 O17        -0.5630   -1.5910   -1.6520 o         1 MOL     -0.714784
    109 O18         0.2580   -2.7750   -3.1420 o         1 MOL     -0.714784
    110 H47         1.6610   -0.8890    0.8910 hn        1 MOL     -0.125536
    111 H48         2.8230   -3.0260   -1.0220 h1        1 MOL      0.071901
    112 H49         2.4490   -1.4140   -2.7790 hc        1 MOL      0.087364
    113 H50         1.6920   -0.3620   -1.5310 hc        1 MOL      0.087364
    114 N11         4.9520   -1.6190   -1.4140 n         1 MOL     -0.533100
    115 C36         6.3910   -1.4290   -1.2180 c3        1 MOL      0.372209
    116 C37         6.7850    0.0950   -1.1310 c         1 MOL      0.257403
    117 O19         7.6080    0.3880   -0.2520 o         1 MOL     -0.512583
    118 C38         7.0370   -2.2600   -2.3730 c3        1 MOL     -0.287453
    119 C39         8.5420   -2.2600   -2.2430 ca        1 MOL      0.082797
    120 C40         9.2160   -2.8900   -1.1670 ca        1 MOL     -0.110051
    121 C41         9.3450   -1.6270   -3.2390 ca        1 MOL     -0.110051
    122 C42        10.6350   -2.9270   -1.0440 ca        1 MOL     -0.213119
    123 C43        10.7810   -1.6860   -3.1260 ca        1 MOL     -0.213119
    124 C44        11.4260   -2.2930   -1.9830 ca        1 MOL      0.000782
    125 H51         4.6530   -2.2240   -2.1660 hn        1 MOL      0.297995
    126 H52         6.6550   -1.9280   -0.2930 h1        1 MOL      0.039078
    127 H53         6.7610   -1.7700   -3.3000 hc        1 MOL      0.094797
    128 H54         6.7010   -3.2960   -2.3490 hc        1 MOL      0.094797
    129 H55         8.6620   -3.4060   -0.3880 ha        1 MOL      0.112720
    130 H56         8.9160   -1.1710   -4.1200 ha        1 MOL      0.112720
    131 H57        11.0790   -3.3140   -0.1430 ha        1 MOL      0.133984
    132 H58        11.4030   -1.2090   -3.8690 ha        1 MOL      0.133984
    133 H59        12.4990   -2.3680   -1.9650 ha        1 MOL      0.077860
    134 N12         6.1530    1.0990   -1.7400 n         1 MOL      0.013911
    135 C45         6.4010    2.5360   -1.4780 c3        1 MOL     -0.010959
    136 C46         5.7060    3.0320   -0.1910 c         1 MOL      0.318339
    137 O20         6.0960    4.0880    0.3170 o         1 MOL     -0.519480
    138 C47         5.9380    3.3080   -2.7240 c3        1 MOL     -0.122009
    139 C48         5.0680    2.3200   -3.5220 c3        1 MOL     -0.061570
    140 C49         5.2680    0.9640   -2.8690 c3        1 MOL     -0.046021
    141 H60         7.4820    2.6060   -1.3680 h1        1 MOL      0.093663
    142 H61         5.4190    4.2260   -2.4440 hc        1 MOL      0.061198
    143 H62         6.8620    3.5640   -3.2380 hc        1 MOL      0.061198
    144 H63         4.0290    2.5980   -3.3440 hc        1 MOL      0.056561
    145 H64         5.2190    2.4220   -4.5920 hc        1 MOL      0.056561
    146 H65         4.3170    0.5490   -2.5300 h1        1 MOL      0.023439
    147 H66         5.5940    0.2090   -3.5810 h1        1 MOL      0.023439
    148 N13         4.7660    2.2950    0.3320 n         1 MOL     -0.050441
    149 C50         3.8930    2.5750    1.5240 c3        1 MOL     -0.143526
    150 C51         4.5960    1.9690    2.7370 c         1 MOL      0.357971
    151 O21         4.6530    2.6240    3.7650 o         1 MOL     -0.524806
    152 C52         2.4370    2.0340    1.3430 c3        1 MOL     -0.085155
    153 C53         1.5920    2.4490    0.1310 c3        1 MOL     -0.048027
    154 C54         0.2130    1.7480    0.1800 c         1 MOL      0.664333
    155 O22         0.0790    0.7750    0.9370 o         1 MOL     -0.775144
    156 O23        -0.7780    2.0540   -0.5330 o         1 MOL     -0.775144
    157 H67         4.6780    1.3630   -0.0400 hn        1 MOL      0.113158
    158 H68         3.8710    3.6500    1.7190 h1        1 MOL      0.140810
    159 H69         1.8910    2.2340    2.2570 hc        1 MOL      0.156031
    160 H70         2.5780    0.9550    1.2970 hc        1 MOL      0.156031
    161 H71         2.1410    2.1840   -0.7800 hc        1 MOL      0.029951
    162 H72         1.3600    3.5020    0.2460 hc        1 MOL      0.029951
    163 N14         5.2710    0.8020    2.5760 n         1 MOL     -0.009217
    164 C55         6.1310    0.2640    3.5840 c3        1 MOL     -0.058858
    165 H73         5.7860   -0.7330    3.8610 h1        1 MOL      0.029262
    166 H74         7.1480    0.2020    3.1980 h1        1 MOL      0.029262
    167 H75         6.1130    0.9110    4.4610 h1        1 MOL      0.029262
    168 H76         5.2940    0.3440    1.6670 hn        1 MOL      0.076827
    169 Ca1        -2.1050   -0.1520   -0.2160 Ca        1 MOL      1.712227
    170 O24        -4.0940   -0.7540    1.5880 oh        1 MOL     -0.901733
    171 H77        -3.5240   -0.6070    2.3480 ho        1 MOL      0.425093
    172 H78        -4.9080   -0.2990    1.8130 ho        1 MOL      0.425093
@<TRIPOS>BOND
     1    1    2 1   
     2    1    4 1   
     3    1    5 1   
     4    1    6 1   
     5    2    3 2   
     6    2    7 1   
     7    7    8 1   
     8    7   15 1   
     9    8    9 1   
    10    8   11 1   
    11    8   16 1   
    12    9   10 2   
    13    9   19 1   
    14   11   12 1   
    15   11   17 1   
    16   11   18 1   
    17   12   13 1   
    18   12   14 1   
    19   19   20 1   
    20   19   24 1   
    21   20   21 1   
    22   20   23 1   
    23   20   25 1   
    24   21   22 2   
    25   21   29 1   
    26   23   26 1   
    27   23   27 1   
    28   23   28 1   
    29   29   30 1   
    30   29   37 1   
    31   30   31 1   
    32   30   33 1   
    33   30   38 1   
    34   31   32 2   
    35   31   41 1   
    36   33   34 1   
    37   33   39 1   
    38   33   40 1   
    39   34   35 1   
    40   34   36 1   
    41   41   42 1   
    42   41   45 1   
    43   42   43 1   
    44   42   46 1   
    45   42   47 1   
    46   43   44 2   
    47   43   48 1   
    48   48   49 1   
    49   48   56 1   
    50   49   50 1   
    51   49   52 1   
    52   49   57 1   
    53   50   51 2   
    54   50   62 1   
    55   52   53 1   
    56   52   58 1   
    57   52   59 1   
    58   53   54 1   
    59   53   55 2   
    60   54   60 1   
    61   54   61 1   
    62   62   63 1   
    63   62   66 1   
    64   63   64 1   
    65   63   67 1   
    66   63   68 1   
    67   64   65 2   
    68   64   69 1   
    69   69   70 1   
    70   69   76 1   
    71   70   71 1   
    72   70   73 1   
    73   70   77 1   
    74   71   72 2   
    75   71   83 1   
    76   73   74 1   
    77   73   75 1   
    78   73   78 1   
    79   74   80 1   
    80   74   81 1   
    81   74   82 1   
    82   75   79 1   
    83   83   84 1   
    84   83   91 1   
    85   84   85 1   
    86   84   87 1   
    87   84   92 1   
    88   85   86 2   
    89   85  102 1   
    90   87   88 1   
    91   87   89 1   
    92   87   93 1   
    93   88   90 1   
    94   88   94 1   
    95   88   95 1   
    96   89   96 1   
    97   89   97 1   
    98   89   98 1   
    99   90   99 1   
   100   90  100 1   
   101   90  101 1   
   102  102  103 1   
   103  102  110 1   
   104  103  104 1   
   105  103  106 1   
   106  103  111 1   
   107  104  105 2   
   108  104  114 1   
   109  106  107 1   
   110  106  112 1   
   111  106  113 1   
   112  107  108 1   
   113  107  109 1   
   114  114  115 1   
   115  114  125 1   
   116  115  116 1   
   117  115  118 1   
   118  115  126 1   
   119  116  117 2   
   120  116  134 1   
   121  118  119 1   
   122  118  127 1   
   123  118  128 1   
   124  119  120 ar  
   125  119  121 ar  
   126  120  122 ar  
   127  120  129 1   
   128  121  123 ar  
   129  121  130 1   
   130  122  124 ar  
   131  122  131 1   
   132  123  124 ar  
   133  123  132 1   
   134  124  133 1   
   135  134  135 1   
   136  134  140 1   
   137  135  136 1   
   138  135  138 1   
   139  135  141 1   
   140  136  137 2   
   141  136  148 1   
   142  138  139 1   
   143  138  142 1   
   144  138  143 1   
   145  139  140 1   
   146  139  144 1   
   147  139  145 1   
   148  140  146 1   
   149  140  147 1   
   150  148  149 1   
   151  148  157 1   
   152  149  150 1   
   153  149  152 1   
   154  149  158 1   
   155  150  151 2   
   156  150  163 1   
   157  152  153 1   
   158  152  159 1   
   159  152  160 1   
   160  153  154 1   
   161  153  161 1   
   162  153  162 1   
   163  154  155 1   
   164  154  156 1   
   165  163  164 1   
   166  163  168 1   
   167  164  165 1   
   168  164  166 1   
   169  164  167 1   
   170  170  171 1   
   171  170  172 1   
@<TRIPOS>SUBSTRUCTURE
     1 MOL         1 TEMP              0 ****  ****    0 ROOT
