@<TRIPOS>MOLECULE
MOL
  172   171     1     0     0
SMALL
resp


@<TRIPOS>ATOM
      1 C1          0.0030   -2.0240    6.2220 c3        1 MOL     -0.367806
      2 C2          0.4310   -2.0540    4.7080 c         1 MOL      0.738001
      3 O1         -0.3740   -2.4750    3.9100 o         1 MOL     -0.539956
      4 H1          0.5950   -1.2780    6.7520 hc        1 MOL      0.084274
      5 H2         -1.0540   -1.7680    6.2970 hc        1 MOL      0.084274
      6 H3          0.1720   -3.0040    6.6680 hc        1 MOL      0.084274
      7 N1          1.6920   -1.6050    4.3900 n         1 MOL     -0.643605
      8 C3          2.1970   -1.7500    3.0190 c3        1 MOL      0.136602
      9 C4          2.4870   -3.2000    2.5650 c         1 MOL      0.561479
     10 O2          3.2870   -3.9000    3.1490 o         1 MOL     -0.607065
     11 C5          3.3760   -0.8080    2.7610 c3        1 MOL     -0.078206
     12 C6          3.6670   -0.5990    1.2690 c         1 MOL      0.740432
     13 O3          2.9720   -1.2170    0.4800 o         1 MOL     -0.718988
     14 O4          4.4850    0.2120    0.8340 o         1 MOL     -0.718988
     15 H4          2.2180   -1.1580    5.1200 hn        1 MOL      0.320946
     16 H5          1.4000   -1.3660    2.3890 h1        1 MOL      0.075794
     17 H6          4.3010   -1.1400    3.2260 hc        1 MOL      0.002096
     18 H7          3.1270    0.1830    3.1480 hc        1 MOL      0.002096
     19 N2          1.8400   -3.7090    1.5500 n         1 MOL     -0.429319
     20 C7          1.9460   -5.1220    1.0610 c3        1 MOL      0.416759
     21 C8          3.0920   -5.2940    0.1080 c         1 MOL      0.287465
     22 O5          3.6760   -6.4110    0.0790 o         1 MOL     -0.589176
     23 C9          0.6750   -5.5280    0.4140 c3        1 MOL     -0.384479
     24 H8          1.2170   -3.1510    0.9870 hn        1 MOL      0.142832
     25 H9          2.2120   -5.8020    1.8770 h1        1 MOL     -0.000622
     26 H10         0.4670   -6.5730    0.6150 hc        1 MOL      0.097500
     27 H11        -0.1460   -5.0000    0.9040 hc        1 MOL      0.097500
     28 H12         0.8370   -5.3090   -0.6450 hc        1 MOL      0.097500
     29 N3          3.4360   -4.3010   -0.6550 n         1 MOL     -0.176392
     30 C10         4.4910   -4.3460   -1.6820 c3        1 MOL      0.153463
     31 C11         5.7080   -3.4300   -1.2870 c         1 MOL      0.389567
     32 O6          6.7490   -3.4670   -2.0340 o         1 MOL     -0.562249
     33 C12         3.8910   -4.1220   -3.1080 c3        1 MOL     -0.213431
     34 C13         3.2530   -2.7660   -3.4110 c         1 MOL      0.703234
     35 O7          3.0550   -1.9820   -2.4130 o         1 MOL     -0.669312
     36 O8          2.9320   -2.4540   -4.6050 o         1 MOL     -0.669312
     37 H13         2.8570   -3.4780   -0.6660 hn        1 MOL      0.220870
     38 H14         4.9760   -5.3280   -1.6730 h1        1 MOL      0.062793
     39 H15         3.2600   -4.9540   -3.4420 hc        1 MOL      0.037863
     40 H16         4.7880   -4.1850   -3.7120 hc        1 MOL      0.037863
     41 N4          5.7330   -2.7420   -0.1620 n         1 MOL     -0.162543
     42 C14         6.9760   -2.2350    0.4480 c3        1 MOL     -0.366998
     43 C15         7.4740   -0.9630   -0.1660 c         1 MOL      0.540323
     44 O9          8.5070   -0.4680    0.2800 o         1 MOL     -0.585916
     45 H17         4.8410   -2.6130    0.2940 hn        1 MOL      0.172834
     46 H18         7.8080   -2.9470    0.3910 h1        1 MOL      0.172774
     47 H19         6.7040   -2.0030    1.4740 h1        1 MOL      0.172774
     48 N5          6.7690   -0.3560   -1.1110 n         1 MOL     -0.214885
     49 C16         7.1140    0.9130   -1.7200 c3        1 MOL      0.029428
     50 C17         7.2540    2.1240   -0.7050 c         1 MOL      0.431020
     51 O10         8.1010    2.9460   -0.9380 o         1 MOL     -0.538614
     52 C18         6.1140    1.3000   -2.8720 c3        1 MOL     -0.318450
     53 C19         4.8080    1.8440   -2.3820 c         1 MOL      0.563989
     54 N6          4.7660    3.1090   -2.3530 n         1 MOL     -0.616453
     55 O11         3.9300    1.1690   -1.8340 o         1 MOL     -0.601105
     56 H20         5.9060   -0.8250   -1.3440 hn        1 MOL      0.220359
     57 H21         8.0050    0.7090   -2.3030 h1        1 MOL      0.087031
     58 H22         5.9000    0.3750   -3.4000 hc        1 MOL      0.103446
     59 H23         6.6250    2.0790   -3.4370 hc        1 MOL      0.103446
     60 H24         5.4720    3.7280   -2.7290 hn        1 MOL      0.317517
     61 H25         3.9040    3.5580   -2.0860 hn        1 MOL      0.317517
     62 N7          6.4530    2.0710    0.4040 n         1 MOL     -0.091577
     63 C20         6.4240    3.1410    1.4140 c3        1 MOL     -0.203903
     64 C21         5.1720    4.0690    1.3820 c         1 MOL      0.541984
     65 O12         5.1390    5.1090    2.0680 o         1 MOL     -0.571689
     66 H26         5.8610    1.2700    0.5330 hn        1 MOL      0.164783
     67 H27         7.2610    3.8230    1.2660 h1        1 MOL      0.106712
     68 H28         6.4990    2.7550    2.4230 h1        1 MOL      0.106712
     69 N8          4.0910    3.7490    0.5930 n         1 MOL     -0.177385
     70 C22         2.8310    4.4900    0.5590 c3        1 MOL     -0.428874
     71 C23         1.6830    3.4930    0.2770 c         1 MOL      0.719864
     72 O13         1.7340    2.4930   -0.4330 o         1 MOL     -0.506097
     73 C24         2.7330    5.6320   -0.5210 c3        1 MOL      0.371258
     74 C25         3.8870    6.5640   -0.5350 c3        1 MOL     -0.402758
     75 O14         2.7390    5.1000   -1.8240 oh        1 MOL     -0.616604
     76 H29         4.2140    2.9150    0.0460 hn        1 MOL      0.165998
     77 H30         2.7380    4.9190    1.5530 h1        1 MOL      0.183875
     78 H31         1.8080    6.1700   -0.3250 h1        1 MOL      0.023087
     79 H32         2.8920    5.7580   -2.5080 ho        1 MOL      0.406900
     80 H33         4.2380    6.6990    0.4930 hc        1 MOL      0.102643
     81 H34         4.7560    6.0920   -0.9860 hc        1 MOL      0.102643
     82 H35         3.7970    7.5110   -1.0650 hc        1 MOL      0.102643
     83 N9          0.5900    3.7900    1.0310 n         1 MOL     -0.462809
     84 C26        -0.5170    2.9630    1.3440 c3        1 MOL     -0.042804
     85 C27        -1.6400    3.1830    0.2870 c         1 MOL      0.579065
     86 O15        -2.1040    4.3280    0.1400 o         1 MOL     -0.598201
     87 C28        -1.0880    3.1550    2.7460 c3        1 MOL      0.296101
     88 C29        -0.0410    2.9590    3.8350 c3        1 MOL      0.003672
     89 C30        -2.2630    2.1990    2.8680 c3        1 MOL     -0.183022
     90 C31        -0.5320    3.4470    5.2070 c3        1 MOL     -0.276668
     91 H36         0.6850    4.6380    1.5760 hn        1 MOL      0.259415
     92 H37        -0.1140    1.9540    1.3930 h1        1 MOL      0.065908
     93 H38        -1.4150    4.1960    2.8100 hc        1 MOL     -0.049896
     94 H39         0.8270    3.5890    3.6060 hc        1 MOL      0.007621
     95 H40         0.1740    1.8880    3.8180 hc        1 MOL      0.007621
     96 H41        -1.8010    1.2460    3.1100 hc        1 MOL      0.014983
     97 H42        -2.8610    2.4240    3.7560 hc        1 MOL      0.014983
     98 H43        -2.9310    2.1980    2.0040 hc        1 MOL      0.014983
     99 H44        -0.9420    4.4520    5.2010 hc        1 MOL      0.061732
    100 H45        -1.1800    2.6500    5.5710 hc        1 MOL      0.061732
    101 H46         0.1940    3.4660    6.0150 hc        1 MOL      0.061732
    102 N10        -2.0770    2.0870   -0.4120 n         1 MOL     -0.154987
    103 C32        -3.0450    2.0210   -1.5390 c3        1 MOL     -0.015749
    104 C33        -4.5040    1.7730   -1.0210 c         1 MOL      0.395046
    105 O16        -4.6520    1.6940    0.2230 o         1 MOL     -0.407967
    106 C34        -2.5780    0.8550   -2.4450 c3        1 MOL     -0.190846
    107 C35        -1.0830    0.6630   -2.6460 c         1 MOL      0.757395
    108 O17        -0.6970   -0.4790   -2.8580 o         1 MOL     -0.706549
    109 O18        -0.2020    1.5720   -2.6670 o         1 MOL     -0.706549
    110 H47        -1.4710    1.2900   -0.2890 hn        1 MOL     -0.115830
    111 H48        -2.9240    2.9410   -2.1170 h1        1 MOL      0.089418
    112 H49        -2.9430    1.1360   -3.4380 hc        1 MOL      0.050588
    113 H50        -3.0450   -0.0410   -2.0500 hc        1 MOL      0.050588
    114 N11        -5.4240    1.4940   -1.8940 n         1 MOL     -0.551239
    115 C36        -6.7400    1.2750   -1.3450 c3        1 MOL      0.392953
    116 C37        -6.9250   -0.1890   -0.8130 c         1 MOL      0.354883
    117 O19        -7.5310   -0.2970    0.2780 o         1 MOL     -0.489107
    118 C38        -7.7700    1.5650   -2.3870 c3        1 MOL     -0.058807
    119 C39        -9.2310    1.3960   -1.9410 ca        1 MOL      0.009526
    120 C40        -9.6620    1.8450   -0.6600 ca        1 MOL     -0.144754
    121 C41       -10.1530    0.6620   -2.7650 ca        1 MOL     -0.144754
    122 C42       -10.9330    1.5530   -0.2080 ca        1 MOL     -0.121721
    123 C43       -11.4740    0.4270   -2.2960 ca        1 MOL     -0.121721
    124 C44       -11.8650    0.7700   -0.9610 ca        1 MOL     -0.107337
    125 H51        -5.3290    1.6550   -2.8780 hn        1 MOL      0.307577
    126 H52        -6.8660    1.9950   -0.5270 h1        1 MOL      0.039290
    127 H53        -7.6870    0.9470   -3.2810 hc        1 MOL      0.019457
    128 H54        -7.6630    2.5500   -2.8250 hc        1 MOL      0.019457
    129 H55        -9.0930    2.4290    0.0500 ha        1 MOL      0.113854
    130 H56        -9.9600    0.4860   -3.8150 ha        1 MOL      0.113854
    131 H57       -11.3040    1.8030    0.7800 ha        1 MOL      0.105802
    132 H58       -12.1980    0.0270   -2.9930 ha        1 MOL      0.105802
    133 H59       -12.8310    0.5270   -0.5570 ha        1 MOL      0.107640
    134 N12        -6.4990   -1.2790   -1.4400 n         1 MOL     -0.203363
    135 C45        -6.5200   -2.6160   -0.8070 c3        1 MOL      0.070560
    136 C46        -5.7620   -2.7100    0.5730 c         1 MOL      0.212856
    137 O20        -6.2120   -3.5850    1.3980 o         1 MOL     -0.491131
    138 C47        -5.7130   -3.5230   -1.7720 c3        1 MOL     -0.037560
    139 C48        -6.0680   -2.7750   -3.0840 c3        1 MOL     -0.076443
    140 C49        -6.0430   -1.3190   -2.8090 c3        1 MOL      0.057254
    141 H60        -7.5570   -2.9490   -0.7750 h1        1 MOL      0.074145
    142 H61        -4.6460   -3.4890   -1.5620 hc        1 MOL      0.043562
    143 H62        -6.1420   -4.5210   -1.7340 hc        1 MOL      0.043562
    144 H63        -5.4370   -3.0100   -3.9410 hc        1 MOL      0.030756
    145 H64        -7.0660   -3.0570   -3.4170 hc        1 MOL      0.030756
    146 H65        -5.0590   -0.8660   -2.8770 h1        1 MOL      0.013865
    147 H66        -6.6670   -0.7160   -3.4590 h1        1 MOL      0.013865
    148 N13        -4.7960   -1.8390    0.7790 n         1 MOL     -0.065348
    149 C50        -3.9920   -1.6940    1.9700 c3        1 MOL     -0.016294
    150 C51        -4.7330   -0.8170    3.0480 c         1 MOL      0.416093
    151 O21        -4.8110   -1.3300    4.1120 o         1 MOL     -0.537070
    152 C52        -2.6170   -1.0620    1.5950 c3        1 MOL      0.092733
    153 C53        -1.8800   -2.0210    0.6310 c3        1 MOL     -0.673063
    154 C54        -0.5720   -1.4620    0.0860 c         1 MOL      0.983785
    155 O22        -0.1920   -0.2700    0.2480 o         1 MOL     -0.745521
    156 O23         0.1920   -2.2010   -0.6010 o         1 MOL     -0.745521
    157 H67        -4.4370   -1.2750    0.0200 hn        1 MOL      0.277946
    158 H68        -3.7670   -2.6360    2.4680 h1        1 MOL      0.080049
    159 H69        -2.0220   -0.9420    2.5000 hc        1 MOL      0.071352
    160 H70        -2.7260   -0.0890    1.1080 hc        1 MOL      0.071352
    161 H71        -2.4900   -2.1510   -0.2610 hc        1 MOL      0.168680
    162 H72        -1.6610   -2.9040    1.2280 hc        1 MOL      0.168680
    163 N14        -5.2230    0.4240    2.7780 n         1 MOL     -0.003218
    164 C55        -6.0640    1.0990    3.6860 c3        1 MOL     -0.153612
    165 H73        -5.4900    1.8600    4.2150 h1        1 MOL      0.055597
    166 H74        -6.8800    1.5740    3.1420 h1        1 MOL      0.055597
    167 H75        -6.4710    0.3870    4.4030 h1        1 MOL      0.055597
    168 H76        -5.0980    0.7080    1.8260 hn        1 MOL      0.018612
    169 Ca1         1.6950   -0.0750   -1.4660 Ca        1 MOL      1.739873
    170 O24         2.1760    0.1790   -4.1460 oh        1 MOL     -0.766322
    171 H77         2.6020   -0.5800   -4.5480 ho        1 MOL      0.350848
    172 H78         2.6540    0.9310   -4.4940 ho        1 MOL      0.350848
@<TRIPOS>BOND
     1    1    2 1   
     2    1    4 1   
     3    1    5 1   
     4    1    6 1   
     5    2    3 2   
     6    2    7 1   
     7    7    8 1   
     8    7   15 1   
     9    8    9 1   
    10    8   11 1   
    11    8   16 1   
    12    9   10 2   
    13    9   19 1   
    14   11   12 1   
    15   11   17 1   
    16   11   18 1   
    17   12   13 1   
    18   12   14 1   
    19   19   20 1   
    20   19   24 1   
    21   20   21 1   
    22   20   23 1   
    23   20   25 1   
    24   21   22 2   
    25   21   29 1   
    26   23   26 1   
    27   23   27 1   
    28   23   28 1   
    29   29   30 1   
    30   29   37 1   
    31   30   31 1   
    32   30   33 1   
    33   30   38 1   
    34   31   32 2   
    35   31   41 1   
    36   33   34 1   
    37   33   39 1   
    38   33   40 1   
    39   34   35 1   
    40   34   36 1   
    41   41   42 1   
    42   41   45 1   
    43   42   43 1   
    44   42   46 1   
    45   42   47 1   
    46   43   44 2   
    47   43   48 1   
    48   48   49 1   
    49   48   56 1   
    50   49   50 1   
    51   49   52 1   
    52   49   57 1   
    53   50   51 2   
    54   50   62 1   
    55   52   53 1   
    56   52   58 1   
    57   52   59 1   
    58   53   54 1   
    59   53   55 2   
    60   54   60 1   
    61   54   61 1   
    62   62   63 1   
    63   62   66 1   
    64   63   64 1   
    65   63   67 1   
    66   63   68 1   
    67   64   65 2   
    68   64   69 1   
    69   69   70 1   
    70   69   76 1   
    71   70   71 1   
    72   70   73 1   
    73   70   77 1   
    74   71   72 2   
    75   71   83 1   
    76   73   74 1   
    77   73   75 1   
    78   73   78 1   
    79   74   80 1   
    80   74   81 1   
    81   74   82 1   
    82   75   79 1   
    83   83   84 1   
    84   83   91 1   
    85   84   85 1   
    86   84   87 1   
    87   84   92 1   
    88   85   86 2   
    89   85  102 1   
    90   87   88 1   
    91   87   89 1   
    92   87   93 1   
    93   88   90 1   
    94   88   94 1   
    95   88   95 1   
    96   89   96 1   
    97   89   97 1   
    98   89   98 1   
    99   90   99 1   
   100   90  100 1   
   101   90  101 1   
   102  102  103 1   
   103  102  110 1   
   104  103  104 1   
   105  103  106 1   
   106  103  111 1   
   107  104  105 2   
   108  104  114 1   
   109  106  107 1   
   110  106  112 1   
   111  106  113 1   
   112  107  108 1   
   113  107  109 1   
   114  114  115 1   
   115  114  125 1   
   116  115  116 1   
   117  115  118 1   
   118  115  126 1   
   119  116  117 2   
   120  116  134 1   
   121  118  119 1   
   122  118  127 1   
   123  118  128 1   
   124  119  120 ar  
   125  119  121 ar  
   126  120  122 ar  
   127  120  129 1   
   128  121  123 ar  
   129  121  130 1   
   130  122  124 ar  
   131  122  131 1   
   132  123  124 ar  
   133  123  132 1   
   134  124  133 1   
   135  134  135 1   
   136  134  140 1   
   137  135  136 1   
   138  135  138 1   
   139  135  141 1   
   140  136  137 2   
   141  136  148 1   
   142  138  139 1   
   143  138  142 1   
   144  138  143 1   
   145  139  140 1   
   146  139  144 1   
   147  139  145 1   
   148  140  146 1   
   149  140  147 1   
   150  148  149 1   
   151  148  157 1   
   152  149  150 1   
   153  149  152 1   
   154  149  158 1   
   155  150  151 2   
   156  150  163 1   
   157  152  153 1   
   158  152  159 1   
   159  152  160 1   
   160  153  154 1   
   161  153  161 1   
   162  153  162 1   
   163  154  155 1   
   164  154  156 1   
   165  163  164 1   
   166  163  168 1   
   167  164  165 1   
   168  164  166 1   
   169  164  167 1   
   170  170  171 1   
   171  170  172 1   
@<TRIPOS>SUBSTRUCTURE
     1 MOL         1 TEMP              0 ****  ****    0 ROOT
