@<TRIPOS>MOLECULE
MOL
  179   176     1     0     0
SMALL
resp


@<TRIPOS>ATOM
      1 C1          2.0420    1.7110    6.0610 c3        1 MOL     -0.233986
      2 C2          1.4230    1.6460    4.6690 c         1 MOL      0.820198
      3 O1          2.2650    1.3180    3.8380 o         1 MOL     -0.653223
      4 H1          2.0410    2.7430    6.4100 hc        1 MOL      0.053997
      5 H2          1.4610    1.0950    6.7480 hc        1 MOL      0.053997
      6 H3          3.0670    1.3430    6.0220 hc        1 MOL      0.053997
      7 N1          0.1620    1.9080    4.3480 n         1 MOL     -0.653660
      8 C3         -0.3460    1.9680    2.9710 c3        1 MOL      0.127312
      9 C4         -0.0060    3.3800    2.2940 c         1 MOL      0.435931
     10 O2         -0.5740    4.4100    2.7280 o         1 MOL     -0.536148
     11 C5         -1.8960    1.5890    2.9740 c3        1 MOL     -0.114628
     12 C6         -2.4640    1.3030    1.5250 c         1 MOL      0.628952
     13 O3         -1.8150    1.8650    0.6280 o         1 MOL     -0.732008
     14 O4         -3.4820    0.5780    1.3120 o         1 MOL     -0.732008
     15 H4         -0.4390    2.0660    5.1480 hn        1 MOL      0.323591
     16 H5          0.1850    1.2520    2.3390 h1        1 MOL      0.069986
     17 H6         -2.5450    2.2490    3.5390 hc        1 MOL      0.045880
     18 H7         -1.8960    0.6270    3.4960 hc        1 MOL      0.045880
     19 N2          0.8130    3.3840    1.2900 n         1 MOL     -0.116674
     20 C7          1.3440    4.6740    0.7660 c3        1 MOL     -0.492118
     21 C8          0.2350    5.4790    0.0870 c         1 MOL      0.607341
     22 O5          0.2500    6.7360   -0.0760 o         1 MOL     -0.564877
     23 C9          2.5410    4.3440   -0.1340 c3        1 MOL      0.073237
     24 C10         3.3840    5.5930   -0.5420 c3        1 MOL     -0.244365
     25 C11         4.7840    5.2320   -1.1220 c3        1 MOL      0.068669
     26 C12         5.5820    6.4830   -1.4460 c3        1 MOL      0.113311
     27 N3          6.9100    6.1720   -1.9210 n4        1 MOL     -0.399686
     28 H8          1.0470    2.5050    0.8680 hn        1 MOL      0.208331
     29 H9          1.6250    5.2810    1.6260 h1        1 MOL      0.219889
     30 H10         2.3260    3.8020   -1.0560 hc        1 MOL      0.105059
     31 H11         3.1730    3.7480    0.5130 hc        1 MOL      0.105059
     32 H12         3.6560    6.1570    0.3610 hc        1 MOL      0.088383
     33 H13         2.8670    6.2620   -1.2310 hc        1 MOL      0.088383
     34 H14         4.6130    4.6540   -2.0340 hc        1 MOL      0.001260
     35 H15         5.3150    4.5950   -0.4110 hc        1 MOL      0.001260
     36 H16         5.5840    7.0380   -0.5150 hx        1 MOL      0.060252
     37 H17         5.0660    7.0950   -2.1800 hx        1 MOL      0.060252
     38 H18         7.4450    7.0280   -1.9930 hn        1 MOL      0.340082
     39 H19         7.3270    5.4990   -1.2920 hn        1 MOL      0.340082
     40 H20         6.8060    5.6890   -2.8000 hn        1 MOL      0.340082
     41 N4         -0.9190    4.7810   -0.2740 n         1 MOL     -0.246999
     42 C13        -2.1010    5.4810   -0.8300 c3        1 MOL     -0.257495
     43 C14        -3.5070    5.0350   -0.3550 c         1 MOL      0.585500
     44 O6         -4.5140    5.4890   -0.9070 o         1 MOL     -0.536526
     45 C15        -2.0330    5.4060   -2.3500 c3        1 MOL      0.142132
     46 C16        -2.1160    4.0270   -2.9920 c         1 MOL      0.568049
     47 O7         -2.5680    3.9760   -4.1530 o         1 MOL     -0.683935
     48 O8         -1.9110    3.0120   -2.2870 o         1 MOL     -0.683935
     49 H21        -0.9480    3.7900   -0.0670 hn        1 MOL      0.155278
     50 H22        -1.9900    6.5090   -0.4750 h1        1 MOL      0.149067
     51 H23        -1.0540    5.7860   -2.6270 hc        1 MOL     -0.026588
     52 H24        -2.7490    6.0790   -2.8240 hc        1 MOL     -0.026588
     53 N5         -3.5440    4.3470    0.7700 n         1 MOL     -0.287940
     54 C17        -4.7530    4.0640    1.5610 c3        1 MOL     -0.158684
     55 C18        -5.8670    3.1930    0.8120 c         1 MOL      0.518428
     56 O9         -7.0490    3.2330    1.2230 o         1 MOL     -0.578221
     57 H25        -2.6490    4.0470    1.1270 hn        1 MOL      0.245622
     58 H26        -5.2980    4.9830    1.7670 h1        1 MOL      0.103396
     59 H27        -4.4680    3.6240    2.5120 h1        1 MOL      0.103396
     60 N6         -5.5070    2.4860   -0.2190 n         1 MOL     -0.250856
     61 C19        -6.3830    1.5760   -0.9880 c3        1 MOL      0.008082
     62 C20        -6.7840    0.2530   -0.3500 c         1 MOL      0.195265
     63 O10        -7.5480   -0.5430   -0.9550 o         1 MOL     -0.440884
     64 C21        -5.8150    1.3460   -2.4060 c3        1 MOL     -0.469759
     65 C22        -4.8380    0.1940   -2.3140 c         1 MOL      0.593254
     66 N7         -5.1620   -0.9760   -2.9020 n         1 MOL     -0.526298
     67 O11        -3.8340    0.2680   -1.6480 o         1 MOL     -0.671702
     68 H28        -4.5400    2.4610   -0.5200 hn        1 MOL      0.257195
     69 H29        -7.2580    2.1970   -1.2210 h1        1 MOL      0.161152
     70 H30        -5.1610    2.1560   -2.7090 hc        1 MOL      0.187091
     71 H31        -6.5920    1.1460   -3.1420 hc        1 MOL      0.187091
     72 H32        -6.0520   -1.0750   -3.3690 hn        1 MOL      0.297416
     73 H33        -4.4250   -1.6590   -3.0040 hn        1 MOL      0.297416
     74 N8         -6.2450    0.0030    0.8380 n         1 MOL      0.044336
     75 C23        -6.5350   -1.1990    1.6820 c3        1 MOL     -0.501180
     76 C24        -5.4960   -2.3000    1.6670 c         1 MOL      0.839078
     77 O12        -5.5400   -3.3060    2.3870 o         1 MOL     -0.613367
     78 H34        -5.7340    0.7570    1.2770 hn        1 MOL      0.213742
     79 H35        -7.4770   -1.5820    1.2970 h1        1 MOL      0.179631
     80 H36        -6.6870   -0.8910    2.7120 h1        1 MOL      0.179631
     81 N9         -4.4230   -2.0720    0.9360 n         1 MOL     -0.832894
     82 C25        -3.4390   -3.1010    0.5990 c3        1 MOL      0.373284
     83 C26        -1.9760   -2.5270    0.4910 c         1 MOL      0.500201
     84 O13        -1.7290   -1.6190   -0.3170 o         1 MOL     -0.563781
     85 C27        -3.7210   -3.8610   -0.7100 c3        1 MOL     -0.281847
     86 C28        -4.9840   -4.6120   -0.6900 ca        1 MOL      0.147330
     87 C29        -6.1520   -3.8760   -0.9760 ca        1 MOL     -0.195963
     88 C30        -4.9780   -6.0680   -0.6360 ca        1 MOL     -0.195963
     89 C31        -7.4000   -4.5820   -0.9360 ca        1 MOL     -0.287926
     90 C32        -6.2360   -6.6530   -0.8670 ca        1 MOL     -0.287926
     91 C33        -7.4660   -5.9600   -0.8290 ca        1 MOL      0.429344
     92 O14        -8.5990   -6.6710   -0.9600 oh        1 MOL     -0.507945
     93 H37        -4.3160   -1.1300    0.5890 hn        1 MOL      0.528437
     94 H38        -3.5220   -3.8670    1.3710 h1        1 MOL      0.047448
     95 H39        -2.8770   -4.5320   -0.8790 hc        1 MOL      0.063846
     96 H40        -3.6970   -3.0380   -1.4100 hc        1 MOL      0.063846
     97 H41        -6.1790   -2.8080   -1.1260 ha        1 MOL      0.143717
     98 H42        -4.1030   -6.6960   -0.6210 ha        1 MOL      0.143717
     99 H43        -8.2860   -4.0240   -1.2100 ha        1 MOL      0.136064
    100 H44        -6.2850   -7.7130   -1.0910 ha        1 MOL      0.136064
    101 H45        -8.4900   -7.6260   -1.0130 ho        1 MOL      0.361311
    102 N10        -1.0420   -3.2120    1.1800 n         1 MOL     -0.558853
    103 C34         0.4090   -2.8140    1.3030 c3        1 MOL     -0.021714
    104 C35         1.2870   -3.6880    0.3970 c         1 MOL      0.649117
    105 O15         1.1080   -4.8610    0.4430 o         1 MOL     -0.582929
    106 C36         0.8590   -3.0100    2.8400 c3        1 MOL      0.281492
    107 C37        -0.1070   -2.4870    3.8510 c3        1 MOL      0.241571
    108 C38         2.2700   -2.4240    3.0410 c3        1 MOL     -0.545004
    109 C39         0.1110   -2.7450    5.3640 c3        1 MOL     -0.312102
    110 H46        -1.3830   -3.7780    1.9450 hn        1 MOL      0.289159
    111 H47         0.4890   -1.7550    1.0480 h1        1 MOL      0.152844
    112 H48         0.8640   -4.0870    3.0130 hc        1 MOL     -0.036907
    113 H49        -1.0850   -2.9000    3.6240 hc        1 MOL     -0.063962
    114 H50        -0.1790   -1.4030    3.7820 hc        1 MOL     -0.063962
    115 H51         2.8470   -2.9870    2.3070 hc        1 MOL      0.115115
    116 H52         2.2090   -1.3420    2.8820 hc        1 MOL      0.115115
    117 H53         2.6410   -2.7280    4.0220 hc        1 MOL      0.115115
    118 H54        -0.6170   -2.2040    5.9610 hc        1 MOL      0.071849
    119 H55         0.1650   -3.7980    5.6560 hc        1 MOL      0.071849
    120 H56         1.0550   -2.2550    5.5670 hc        1 MOL      0.071849
    121 N11         2.1200   -3.1350   -0.4520 n         1 MOL     -0.241197
    122 C40         3.1430   -3.8980   -1.2030 c3        1 MOL      0.064180
    123 C41         4.5650   -3.8620   -0.5460 c         1 MOL      0.316965
    124 O16         4.7810   -3.0870    0.3100 o         1 MOL     -0.270531
    125 C42         3.1800   -3.5560   -2.6890 c3        1 MOL     -0.209381
    126 O17         3.8350   -2.3550   -2.6690 oh        1 MOL     -0.277322
    127 H57         1.9790   -2.1470   -0.6010 hn        1 MOL      0.075730
    128 H58         2.8070   -4.9270   -1.1190 h1        1 MOL      0.050236
    129 H59         2.1620   -3.4840   -3.0790 h1        1 MOL      0.113351
    130 H60         3.6830   -4.3270   -3.2780 h1        1 MOL      0.113351
    131 H61         3.7410   -1.9790   -3.5520 ho        1 MOL      0.330329
    132 N12         5.5310   -4.6590   -1.1300 n         1 MOL     -0.396424
    133 C43         6.9340   -4.6350   -0.6800 c3        1 MOL      0.148404
    134 C44         7.5970   -3.2790   -1.0230 c         1 MOL      0.389731
    135 O18         8.5810   -2.8810   -0.3630 o         1 MOL     -0.505083
    136 C45         7.6760   -5.8640   -1.2250 c3        1 MOL     -0.486709
    137 H62         5.2570   -5.2900   -1.8740 hn        1 MOL      0.283346
    138 H63         6.8550   -4.7530    0.4040 h1        1 MOL      0.100799
    139 H64         7.4680   -6.7150   -0.5790 hc        1 MOL      0.144958
    140 H65         7.2130   -6.2050   -2.1440 hc        1 MOL      0.144958
    141 H66         8.7440   -5.6960   -1.3180 hc        1 MOL      0.144958
    142 N13         7.1600   -2.6010   -2.0690 n         1 MOL     -0.231229
    143 C46         7.6070   -1.2060   -2.2940 c3        1 MOL     -0.008769
    144 C47         7.1190   -0.2130   -1.2270 c         1 MOL      0.335832
    145 O19         7.8190    0.7530   -0.9170 o         1 MOL     -0.519987
    146 C48         7.0420   -0.7560   -3.6280 c3        1 MOL     -0.162744
    147 H67         6.4050   -2.9990   -2.6070 hn        1 MOL      0.160861
    148 H68         8.6680   -1.2760   -2.5320 h1        1 MOL      0.129141
    149 H69         5.9550   -0.7860   -3.5710 hc        1 MOL      0.050140
    150 H70         7.3560    0.2570   -3.9070 hc        1 MOL      0.050140
    151 H71         7.3930   -1.4080   -4.4170 hc        1 MOL      0.050140
    152 N14         5.9140   -0.4200   -0.6680 n         1 MOL      0.016654
    153 C49         5.2400    0.2550    0.4960 c3        1 MOL     -0.174398
    154 C50         5.8170   -0.0420    1.8510 c         1 MOL      0.554851
    155 O20         6.0710    0.8000    2.7320 o         1 MOL     -0.546466
    156 C51         3.6870    0.0790    0.4210 c3        1 MOL      0.079828
    157 C52         3.1320    0.6140   -0.8330 c3        1 MOL      0.113296
    158 C53         1.6110    0.2870   -0.9430 c         1 MOL      0.691634
    159 O21         0.8150    0.7440   -0.0920 o         1 MOL     -0.752003
    160 O22         1.2510   -0.5340   -1.8220 o         1 MOL     -0.752003
    161 H72         5.3470   -1.1130   -1.1490 hn        1 MOL      0.080958
    162 H73         5.5160    1.3030    0.3300 h1        1 MOL      0.052713
    163 H74         3.2230    0.6260    1.2330 hc        1 MOL      0.036689
    164 H75         3.4500   -0.9740    0.5700 hc        1 MOL      0.036689
    165 H76         3.5990    0.0850   -1.6610 hc        1 MOL     -0.131170
    166 H77         3.1600    1.6950   -0.9290 hc        1 MOL     -0.131170
    167 N15         6.2560   -1.3200    2.1270 n         1 MOL     -0.176424
    168 C54         7.1450   -1.7560    3.2690 c3        1 MOL     -0.248222
    169 H78         7.2670   -0.9300    3.9700 h1        1 MOL      0.111855
    170 H79         6.6900   -2.6030    3.7830 h1        1 MOL      0.111855
    171 H80         8.1210   -2.0490    2.8800 h1        1 MOL      0.111855
    172 H81         5.9440   -2.0270    1.4770 hn        1 MOL      0.087903
    173 Ca1        -1.2300    0.5260   -1.6790 Ca        1 MOL      1.803197
    174 O23        -2.1300   -1.4980   -3.5550 oh        1 MOL     -0.872544
    175 H82        -2.2700   -1.6650   -4.4830 ho        1 MOL      0.427806
    176 H83        -1.7750   -2.3150   -3.2080 ho        1 MOL      0.427806
    177 O24         0.2790    1.7450   -3.4340 oh        1 MOL     -0.872544
    178 H84         0.5090    2.6680   -3.5020 ho        1 MOL      0.427806
    179 H85         0.7580    1.3270   -4.1570 ho        1 MOL      0.427806
@<TRIPOS>BOND
     1    1    2 1   
     2    1    4 1   
     3    1    5 1   
     4    1    6 1   
     5    2    3 2   
     6    2    7 1   
     7    7    8 1   
     8    7   15 1   
     9    8    9 1   
    10    8   11 1   
    11    8   16 1   
    12    9   10 2   
    13    9   19 1   
    14   11   12 1   
    15   11   17 1   
    16   11   18 1   
    17   12   13 1   
    18   12   14 1   
    19   19   20 1   
    20   19   28 1   
    21   20   21 1   
    22   20   23 1   
    23   20   29 1   
    24   21   22 2   
    25   21   41 1   
    26   23   24 1   
    27   23   30 1   
    28   23   31 1   
    29   24   25 1   
    30   24   32 1   
    31   24   33 1   
    32   25   26 1   
    33   25   34 1   
    34   25   35 1   
    35   26   27 1   
    36   26   36 1   
    37   26   37 1   
    38   27   38 1   
    39   27   39 1   
    40   27   40 1   
    41   41   42 1   
    42   41   49 1   
    43   42   43 1   
    44   42   45 1   
    45   42   50 1   
    46   43   44 2   
    47   43   53 1   
    48   45   46 1   
    49   45   51 1   
    50   45   52 1   
    51   46   47 1   
    52   46   48 1   
    53   53   54 1   
    54   53   57 1   
    55   54   55 1   
    56   54   58 1   
    57   54   59 1   
    58   55   56 2   
    59   55   60 1   
    60   60   61 1   
    61   60   68 1   
    62   61   62 1   
    63   61   64 1   
    64   61   69 1   
    65   62   63 2   
    66   62   74 1   
    67   64   65 1   
    68   64   70 1   
    69   64   71 1   
    70   65   66 1   
    71   65   67 2   
    72   66   72 1   
    73   66   73 1   
    74   74   75 1   
    75   74   78 1   
    76   75   76 1   
    77   75   79 1   
    78   75   80 1   
    79   76   77 2   
    80   76   81 1   
    81   81   82 1   
    82   81   93 1   
    83   82   83 1   
    84   82   85 1   
    85   82   94 1   
    86   83   84 2   
    87   83  102 1   
    88   85   86 1   
    89   85   95 1   
    90   85   96 1   
    91   86   87 ar  
    92   86   88 ar  
    93   87   89 ar  
    94   87   97 1   
    95   88   90 ar  
    96   88   98 1   
    97   89   91 ar  
    98   89   99 1   
    99   90   91 ar  
   100   90  100 1   
   101   91   92 1   
   102   92  101 1   
   103  102  103 1   
   104  102  110 1   
   105  103  104 1   
   106  103  106 1   
   107  103  111 1   
   108  104  105 2   
   109  104  121 1   
   110  106  107 1   
   111  106  108 1   
   112  106  112 1   
   113  107  109 1   
   114  107  113 1   
   115  107  114 1   
   116  108  115 1   
   117  108  116 1   
   118  108  117 1   
   119  109  118 1   
   120  109  119 1   
   121  109  120 1   
   122  121  122 1   
   123  121  127 1   
   124  122  123 1   
   125  122  125 1   
   126  122  128 1   
   127  123  124 2   
   128  123  132 1   
   129  125  126 1   
   130  125  129 1   
   131  125  130 1   
   132  126  131 1   
   133  132  133 1   
   134  132  137 1   
   135  133  134 1   
   136  133  136 1   
   137  133  138 1   
   138  134  135 2   
   139  134  142 1   
   140  136  139 1   
   141  136  140 1   
   142  136  141 1   
   143  142  143 1   
   144  142  147 1   
   145  143  144 1   
   146  143  146 1   
   147  143  148 1   
   148  144  145 2   
   149  144  152 1   
   150  146  149 1   
   151  146  150 1   
   152  146  151 1   
   153  152  153 1   
   154  152  161 1   
   155  153  154 1   
   156  153  156 1   
   157  153  162 1   
   158  154  155 2   
   159  154  167 1   
   160  156  157 1   
   161  156  163 1   
   162  156  164 1   
   163  157  158 1   
   164  157  165 1   
   165  157  166 1   
   166  158  159 1   
   167  158  160 1   
   168  167  168 1   
   169  167  172 1   
   170  168  169 1   
   171  168  170 1   
   172  168  171 1   
   173  174  175 1   
   174  174  176 1   
   175  177  178 1   
   176  177  179 1   
@<TRIPOS>SUBSTRUCTURE
     1 MOL         1 TEMP              0 ****  ****    0 ROOT
