@<TRIPOS>MOLECULE
MOL
  175   173     1     0     0
SMALL
resp


@<TRIPOS>ATOM
      1 C1          0.9320    4.1050    5.1370 c3        1 MOL     -0.357401
      2 C2          0.2170    4.0050    3.7650 c         1 MOL      0.744354
      3 O1          0.8340    4.1390    2.6840 o         1 MOL     -0.583042
      4 H1          1.7600    4.8100    5.0640 hc        1 MOL      0.085673
      5 H2          0.2250    4.4520    5.8910 hc        1 MOL      0.085673
      6 H3          1.3140    3.1240    5.4210 hc        1 MOL      0.085673
      7 N1         -1.1180    3.8440    3.7640 n         1 MOL     -0.674691
      8 C3         -1.9390    3.6130    2.6310 c3        1 MOL      0.166042
      9 C4         -2.2500    4.8770    1.8690 c         1 MOL      0.672996
     10 O2         -2.5460    5.8980    2.4930 o         1 MOL     -0.600680
     11 C5         -3.1830    2.8110    3.0230 c3        1 MOL     -0.168745
     12 C6         -3.9770    2.1940    1.8880 c         1 MOL      0.648145
     13 O3         -3.3960    2.0410    0.7790 o         1 MOL     -0.678818
     14 O4         -5.2200    1.9280    1.9390 o         1 MOL     -0.678818
     15 H4         -1.6100    3.8060    4.6410 hn        1 MOL      0.316454
     16 H5         -1.2950    2.9290    2.0700 h1        1 MOL      0.131751
     17 H6         -3.8290    3.3990    3.6790 hc        1 MOL      0.021325
     18 H7         -2.8550    1.9840    3.6450 hc        1 MOL      0.021325
     19 N2         -2.2890    4.6990    0.5410 n         1 MOL     -0.570267
     20 C7         -2.5940    5.6970   -0.4700 c3        1 MOL      0.272985
     21 C8         -3.5550    5.1690   -1.5580 c         1 MOL      0.566816
     22 O5         -3.8440    5.8480   -2.5490 o         1 MOL     -0.588131
     23 C9         -1.3060    6.4240   -0.9640 c3        1 MOL     -0.295926
     24 H8         -2.0640    3.7410    0.2940 hn        1 MOL      0.299094
     25 H9         -3.2670    6.4180    0.0020 h1        1 MOL     -0.002111
     26 H10        -0.6190    5.7420   -1.4580 hc        1 MOL      0.078265
     27 H11        -1.5460    7.1550   -1.7340 hc        1 MOL      0.078265
     28 H12        -0.7910    6.9260   -0.1500 hc        1 MOL      0.078265
     29 N3         -4.0400    3.9040   -1.4340 n         1 MOL     -0.518320
     30 C10        -4.8790    3.3890   -2.5450 c3        1 MOL      0.058876
     31 C11        -6.1330    2.5790   -2.0970 c         1 MOL      0.465733
     32 O6         -7.0420    2.2770   -2.8700 o         1 MOL     -0.551751
     33 C12        -4.0350    2.5130   -3.4540 c3        1 MOL     -0.025303
     34 C13        -3.3180    1.3220   -2.6900 c         1 MOL      0.680554
     35 O7         -2.2340    0.9630   -3.1090 o         1 MOL     -0.698840
     36 O8         -3.9100    0.7200   -1.7450 o         1 MOL     -0.698840
     37 H13        -3.8900    3.3500   -0.6070 hn        1 MOL      0.276792
     38 H14        -5.3810    4.1360   -3.1570 h1        1 MOL      0.084994
     39 H15        -3.2750    3.0790   -3.9810 hc        1 MOL      0.008453
     40 H16        -4.7700    2.1910   -4.2010 hc        1 MOL      0.008453
     41 N4         -6.3370    2.2160   -0.8040 n         1 MOL     -0.358064
     42 C14        -7.4330    1.4030   -0.3290 c3        1 MOL     -0.109737
     43 C15        -7.4360    0.0290   -0.8240 c         1 MOL      0.538986
     44 O9         -8.4390   -0.6480   -0.7850 o         1 MOL     -0.657612
     45 H17        -5.6060    2.3020   -0.0980 hn        1 MOL      0.259880
     46 H18        -8.3790    1.9000   -0.5290 h1        1 MOL      0.093877
     47 H19        -7.3810    1.2710    0.7520 h1        1 MOL      0.093877
     48 N5         -6.3160   -0.5650   -1.3080 n         1 MOL     -0.122761
     49 C16        -6.3140   -1.8420   -2.0120 c3        1 MOL     -0.077270
     50 C17        -6.3030   -3.0710   -1.0830 c         1 MOL      0.476200
     51 O10        -6.3110   -4.1510   -1.5880 o         1 MOL     -0.524310
     52 C18        -5.1860   -1.9360   -3.1480 c3        1 MOL     -0.070234
     53 C19        -3.8140   -2.0520   -2.4950 c         1 MOL      0.524496
     54 N6         -2.7620   -1.9970   -3.2850 n         1 MOL     -0.489940
     55 O11        -3.6200   -1.9100   -1.3000 o         1 MOL     -0.569926
     56 H20        -5.4790    0.0110   -1.3350 hn        1 MOL      0.124917
     57 H21        -7.2430   -1.9170   -2.5820 h1        1 MOL      0.105553
     58 H22        -5.2030   -1.0440   -3.7640 hc        1 MOL      0.039565
     59 H23        -5.4040   -2.7610   -3.8190 hc        1 MOL      0.039565
     60 H24        -2.8640   -2.2280   -4.2530 hn        1 MOL      0.279319
     61 H25        -1.8500   -1.9570   -2.8370 hn        1 MOL      0.279319
     62 N7         -6.4890   -2.9300    0.2340 n         1 MOL     -0.219319
     63 C20        -6.5840   -4.0560    1.1500 c3        1 MOL     -0.330002
     64 C21        -5.2280   -4.4650    1.6860 c         1 MOL      0.574907
     65 O12        -5.1680   -5.3460    2.5300 o         1 MOL     -0.595385
     66 H26        -6.6290   -2.0170    0.6390 hn        1 MOL      0.281074
     67 H27        -7.0280   -4.9380    0.6860 h1        1 MOL      0.144828
     68 H28        -7.0880   -3.7070    2.0580 h1        1 MOL      0.144828
     69 N8         -4.0960   -3.9070    1.2280 n         1 MOL     -0.043643
     70 C22        -2.7740   -4.4290    1.4900 c3        1 MOL     -0.350566
     71 C23        -1.5770   -3.4390    1.4520 c         1 MOL      0.516839
     72 O13        -1.6050   -2.4890    0.6940 o         1 MOL     -0.487656
     73 C24        -2.3720   -5.3720    0.2990 c3        1 MOL      0.650657
     74 C25        -3.0770   -6.6970    0.4570 c3        1 MOL     -0.474816
     75 O14        -2.7120   -4.7460   -0.9350 oh        1 MOL     -0.597576
     76 H29        -4.2240   -3.0660    0.6710 hn        1 MOL      0.028143
     77 H30        -2.7760   -4.9980    2.4170 h1        1 MOL      0.116000
     78 H31        -1.3080   -5.5710    0.3940 h1        1 MOL     -0.057315
     79 H32        -2.9880   -3.8850   -0.6220 ho        1 MOL      0.307469
     80 H33        -2.9760   -7.1030    1.4650 hc        1 MOL      0.104727
     81 H34        -4.1680   -6.5940    0.3760 hc        1 MOL      0.104727
     82 H35        -2.6390   -7.4490   -0.2020 hc        1 MOL      0.104727
     83 N9         -0.4140   -3.6860    2.1060 n         1 MOL     -0.420634
     84 C26         0.8230   -2.8160    2.0280 c3        1 MOL     -0.210133
     85 C27         1.5580   -3.1830    0.7000 c         1 MOL      0.733324
     86 O15         1.9490   -4.3170    0.4610 o         1 MOL     -0.617670
     87 C28         1.6880   -2.9410    3.3370 c3        1 MOL      0.029079
     88 C29         0.8990   -2.5180    4.5930 c3        1 MOL      0.300250
     89 C30         2.9670   -2.0830    3.2850 c3        1 MOL     -0.074524
     90 C31         1.6150   -3.2830    5.7490 c3        1 MOL     -0.321702
     91 H36        -0.2790   -4.5150    2.6650 hn        1 MOL      0.275683
     92 H37         0.6050   -1.7500    1.9780 h1        1 MOL      0.087349
     93 H38         2.0190   -3.9730    3.3640 hc        1 MOL      0.031926
     94 H39        -0.1390   -2.8400    4.5760 hc        1 MOL     -0.060996
     95 H40         0.8970   -1.4470    4.7470 hc        1 MOL     -0.060996
     96 H41         3.5740   -2.3700    2.4280 hc        1 MOL      0.010444
     97 H42         2.8560   -0.9960    3.2780 hc        1 MOL      0.010444
     98 H43         3.5640   -2.1860    4.1920 hc        1 MOL      0.010444
     99 H44         0.8750   -3.3240    6.5580 hc        1 MOL      0.061794
    100 H45         1.9930   -4.2740    5.4960 hc        1 MOL      0.061794
    101 H46         2.4680   -2.6540    6.0100 hc        1 MOL      0.061794
    102 N10         1.8200   -2.1470   -0.0590 n         1 MOL     -0.410810
    103 C32         2.6080   -2.1020   -1.2320 c3        1 MOL      0.116280
    104 C33         3.9990   -1.4740   -0.9290 c         1 MOL      0.483609
    105 O16         4.1980   -0.7330    0.0290 o         1 MOL     -0.318434
    106 C34         2.0240   -1.4590   -2.4590 c3        1 MOL     -0.135830
    107 C35         0.5670   -1.7580   -2.7390 c         1 MOL      0.724870
    108 O17        -0.3010   -1.2590   -1.9910 o         1 MOL     -0.686077
    109 O18         0.3920   -2.5570   -3.6840 o         1 MOL     -0.686077
    110 H47         1.6060   -1.2140    0.2650 hn        1 MOL      0.261870
    111 H48         2.8730   -3.1120   -1.5580 h1        1 MOL      0.047367
    112 H49         2.5650   -1.7560   -3.3570 hc        1 MOL      0.025287
    113 H50         2.0770   -0.3720   -2.3950 hc        1 MOL      0.025287
    114 N11         5.0540   -1.8010   -1.7210 n         1 MOL     -0.762879
    115 C36         6.4560   -1.5800   -1.3660 c3        1 MOL      0.380465
    116 C37         6.6900   -0.0520   -1.2880 c         1 MOL      0.240860
    117 O19         7.1700    0.4180   -0.2280 o         1 MOL     -0.502229
    118 C38         7.4710   -2.4350   -2.1740 c3        1 MOL     -0.143606
    119 C39         8.8440   -2.0810   -1.7550 ca        1 MOL      0.065174
    120 C40         9.2920   -2.4460   -0.4460 ca        1 MOL     -0.153122
    121 C41         9.7800   -1.4200   -2.5700 ca        1 MOL     -0.153122
    122 C42        10.5570   -2.1340    0.0140 ca        1 MOL     -0.129800
    123 C43        11.0670   -1.0900   -2.1330 ca        1 MOL     -0.129800
    124 C44        11.4210   -1.4240   -0.8030 ca        1 MOL     -0.072090
    125 H51         4.9190   -2.4320   -2.4960 hn        1 MOL      0.342056
    126 H52         6.5690   -1.8240   -0.3060 h1        1 MOL      0.053810
    127 H53         7.3330   -2.2100   -3.2340 hc        1 MOL      0.054457
    128 H54         7.3390   -3.4940   -1.9300 hc        1 MOL      0.054457
    129 H55         8.5690   -2.9980    0.1430 ha        1 MOL      0.110039
    130 H56         9.5800   -1.2240   -3.6110 ha        1 MOL      0.110039
    131 H57        10.8930   -2.4310    0.9910 ha        1 MOL      0.114119
    132 H58        11.8790   -0.6870   -2.7220 ha        1 MOL      0.114119
    133 H59        12.4080   -1.1640   -0.4460 ha        1 MOL      0.087416
    134 N12         6.2540    0.8630   -2.1670 n         1 MOL      0.053557
    135 C45         6.2230    2.2860   -1.9690 c3        1 MOL      0.151988
    136 C46         5.7430    2.8080   -0.6350 c         1 MOL      0.213326
    137 O20         6.0420    3.9600   -0.3060 o         1 MOL     -0.544415
    138 C47         5.4640    2.8780   -3.0600 c3        1 MOL      0.008420
    139 C48         5.7170    1.9640   -4.2360 c3        1 MOL     -0.138338
    140 C49         5.8920    0.5960   -3.5530 c3        1 MOL     -0.115689
    141 H60         7.2760    2.5610   -2.1010 h1        1 MOL      0.006524
    142 H61         4.4160    2.9830   -2.8040 hc        1 MOL      0.028366
    143 H62         5.7850    3.9030   -3.2200 hc        1 MOL      0.028366
    144 H63         4.8410    1.9380   -4.8930 hc        1 MOL      0.058476
    145 H64         6.6250    2.2560   -4.7560 hc        1 MOL      0.058476
    146 H65         4.9370    0.0810   -3.6430 h1        1 MOL      0.054532
    147 H66         6.7960    0.2500   -4.0560 h1        1 MOL      0.054532
    148 N13         4.9610    2.1010    0.0880 n         1 MOL      0.033086
    149 C50         4.2920    2.4650    1.3490 c3        1 MOL     -0.037661
    150 C51         5.0380    1.9640    2.6410 c         1 MOL      0.463609
    151 O21         5.0100    2.7530    3.5790 o         1 MOL     -0.544488
    152 C52         2.8410    1.9810    1.4090 c3        1 MOL      0.105520
    153 C53         1.9800    2.2520    0.1360 c3        1 MOL     -0.081661
    154 C54         0.6130    1.5280    0.2840 c         1 MOL      0.673791
    155 O22        -0.4610    2.1780    0.0520 o         1 MOL     -0.765383
    156 O23         0.4820    0.3210    0.5890 o         1 MOL     -0.765383
    157 H67         4.8000    1.1970   -0.3510 hn        1 MOL      0.034021
    158 H68         4.2680    3.5270    1.5520 h1        1 MOL      0.089158
    159 H69         2.4050    2.4290    2.3010 hc        1 MOL     -0.014344
    160 H70         2.7140    0.9100    1.5210 hc        1 MOL     -0.014344
    161 H71         2.4910    1.7470   -0.6910 hc        1 MOL      0.040229
    162 H72         1.9660    3.2940   -0.1810 hc        1 MOL      0.040229
    163 N14         5.5750    0.7380    2.6220 n         1 MOL     -0.155132
    164 C55         6.4480    0.0740    3.6470 c3        1 MOL     -0.309394
    165 H73         7.3640    0.6510    3.7700 h1        1 MOL      0.119716
    166 H74         5.9180    0.0260    4.5990 h1        1 MOL      0.119716
    167 H75         6.6940   -0.9350    3.3160 h1        1 MOL      0.119716
    168 H76         5.3010    0.2220    1.7930 hn        1 MOL      0.132647
    169 Ca1        -1.9930    0.0040   -0.2870 Ca        1 MOL      1.772262
    170 O24        -1.2790    0.0650    2.5850 oh        1 MOL     -0.830849
    171 H77        -0.3890    0.0200    2.2350 ho        1 MOL      0.402168
    172 H78        -1.1650   -0.0290    3.5380 ho        1 MOL      0.402168
    173 O25        -3.8400   -0.9630    1.8010 oh        1 MOL     -0.830849
    174 H79        -4.5580   -0.5280    2.2590 ho        1 MOL      0.402168
    175 H80        -3.1260   -0.9750    2.4380 ho        1 MOL      0.402168
@<TRIPOS>BOND
     1    1    2 1   
     2    1    4 1   
     3    1    5 1   
     4    1    6 1   
     5    2    3 2   
     6    2    7 1   
     7    7    8 1   
     8    7   15 1   
     9    8    9 1   
    10    8   11 1   
    11    8   16 1   
    12    9   10 2   
    13    9   19 1   
    14   11   12 1   
    15   11   17 1   
    16   11   18 1   
    17   12   13 1   
    18   12   14 1   
    19   19   20 1   
    20   19   24 1   
    21   20   21 1   
    22   20   23 1   
    23   20   25 1   
    24   21   22 2   
    25   21   29 1   
    26   23   26 1   
    27   23   27 1   
    28   23   28 1   
    29   29   30 1   
    30   29   37 1   
    31   30   31 1   
    32   30   33 1   
    33   30   38 1   
    34   31   32 2   
    35   31   41 1   
    36   33   34 1   
    37   33   39 1   
    38   33   40 1   
    39   34   35 1   
    40   34   36 1   
    41   41   42 1   
    42   41   45 1   
    43   42   43 1   
    44   42   46 1   
    45   42   47 1   
    46   43   44 2   
    47   43   48 1   
    48   48   49 1   
    49   48   56 1   
    50   49   50 1   
    51   49   52 1   
    52   49   57 1   
    53   50   51 2   
    54   50   62 1   
    55   52   53 1   
    56   52   58 1   
    57   52   59 1   
    58   53   54 1   
    59   53   55 2   
    60   54   60 1   
    61   54   61 1   
    62   62   63 1   
    63   62   66 1   
    64   63   64 1   
    65   63   67 1   
    66   63   68 1   
    67   64   65 2   
    68   64   69 1   
    69   69   70 1   
    70   69   76 1   
    71   70   71 1   
    72   70   73 1   
    73   70   77 1   
    74   71   72 2   
    75   71   83 1   
    76   73   74 1   
    77   73   75 1   
    78   73   78 1   
    79   74   80 1   
    80   74   81 1   
    81   74   82 1   
    82   75   79 1   
    83   83   84 1   
    84   83   91 1   
    85   84   85 1   
    86   84   87 1   
    87   84   92 1   
    88   85   86 2   
    89   85  102 1   
    90   87   88 1   
    91   87   89 1   
    92   87   93 1   
    93   88   90 1   
    94   88   94 1   
    95   88   95 1   
    96   89   96 1   
    97   89   97 1   
    98   89   98 1   
    99   90   99 1   
   100   90  100 1   
   101   90  101 1   
   102  102  103 1   
   103  102  110 1   
   104  103  104 1   
   105  103  106 1   
   106  103  111 1   
   107  104  105 2   
   108  104  114 1   
   109  106  107 1   
   110  106  112 1   
   111  106  113 1   
   112  107  108 1   
   113  107  109 1   
   114  114  115 1   
   115  114  125 1   
   116  115  116 1   
   117  115  118 1   
   118  115  126 1   
   119  116  117 2   
   120  116  134 1   
   121  118  119 1   
   122  118  127 1   
   123  118  128 1   
   124  119  120 ar  
   125  119  121 ar  
   126  120  122 ar  
   127  120  129 1   
   128  121  123 ar  
   129  121  130 1   
   130  122  124 ar  
   131  122  131 1   
   132  123  124 ar  
   133  123  132 1   
   134  124  133 1   
   135  134  135 1   
   136  134  140 1   
   137  135  136 1   
   138  135  138 1   
   139  135  141 1   
   140  136  137 2   
   141  136  148 1   
   142  138  139 1   
   143  138  142 1   
   144  138  143 1   
   145  139  140 1   
   146  139  144 1   
   147  139  145 1   
   148  140  146 1   
   149  140  147 1   
   150  148  149 1   
   151  148  157 1   
   152  149  150 1   
   153  149  152 1   
   154  149  158 1   
   155  150  151 2   
   156  150  163 1   
   157  152  153 1   
   158  152  159 1   
   159  152  160 1   
   160  153  154 1   
   161  153  161 1   
   162  153  162 1   
   163  154  155 1   
   164  154  156 1   
   165  163  164 1   
   166  163  168 1   
   167  164  165 1   
   168  164  166 1   
   169  164  167 1   
   170  170  171 1   
   171  170  172 1   
   172  173  174 1   
   173  173  175 1   
@<TRIPOS>SUBSTRUCTURE
     1 MOL         1 TEMP              0 ****  ****    0 ROOT
