@<TRIPOS>MOLECULE
MOL
  189   185     1     0     0
SMALL
resp


@<TRIPOS>ATOM
      1 C1          0.1670    3.4640   -4.9800 c3        1 MOL     -0.342684
      2 C2          0.5880    3.0000   -3.5430 c         1 MOL      0.508200
      3 O1         -0.0980    3.3110   -2.5490 o         1 MOL     -0.562564
      4 H1         -0.8980    3.6990   -4.9880 hc        1 MOL      0.097570
      5 H2          0.7360    4.3510   -5.2570 hc        1 MOL      0.097570
      6 H3          0.3680    2.6650   -5.6930 hc        1 MOL      0.097570
      7 N1          1.6570    2.1760   -3.4490 n         1 MOL     -0.443622
      8 C3          2.3640    1.6840   -2.2420 c3        1 MOL      0.228413
      9 C4          2.9620    2.7850   -1.3230 c         1 MOL      0.379338
     10 O2          4.1740    2.9920   -1.2900 o         1 MOL     -0.451305
     11 C5          3.4540    0.6700   -2.6390 c3        1 MOL     -0.230879
     12 C6          4.1610    0.0410   -1.4360 c         1 MOL      0.740367
     13 O3          3.5720   -0.0310   -0.3170 o         1 MOL     -0.676521
     14 O4          5.2790   -0.4860   -1.6150 o         1 MOL     -0.676521
     15 H4          2.1340    2.0680   -4.3340 hn        1 MOL      0.279610
     16 H5          1.6160    1.1440   -1.6750 h1        1 MOL      0.031003
     17 H6          4.2090    1.1090   -3.3040 hc        1 MOL      0.048999
     18 H7          2.9260   -0.0860   -3.2210 hc        1 MOL      0.048999
     19 N2          2.1010    3.5610   -0.6660 n         1 MOL     -0.413539
     20 C7          2.4480    4.8930    0.0120 c3        1 MOL     -0.089247
     21 C8          3.4680    4.9540    1.1750 c         1 MOL      0.516457
     22 O5          3.9220    6.0210    1.6490 o         1 MOL     -0.555158
     23 C9          1.1760    5.7120    0.3190 c3        1 MOL     -0.007025
     24 C10         0.7010    6.5030   -0.8770 c3        1 MOL     -0.060066
     25 C11        -0.2710    7.6430   -0.5650 c3        1 MOL      0.140423
     26 C12        -0.6470    8.4860   -1.7610 c3        1 MOL     -0.222361
     27 N3         -1.1730    7.7600   -2.8500 n4        1 MOL     -0.156913
     28 H8          1.1280    3.3090   -0.7900 hn        1 MOL      0.390268
     29 H9          3.0520    5.3530   -0.7720 h1        1 MOL      0.096765
     30 H10         1.5430    6.4300    1.0520 hc        1 MOL      0.046721
     31 H11         0.4060    5.1570    0.8600 hc        1 MOL      0.046721
     32 H12         0.1540    5.7300   -1.4200 hc        1 MOL      0.020039
     33 H13         1.5260    7.0210   -1.3580 hc        1 MOL      0.020039
     34 H14         0.1840    8.2350    0.2340 hc        1 MOL      0.005048
     35 H15        -1.1820    7.3320   -0.0490 hc        1 MOL      0.005048
     36 H16         0.2460    9.0620   -1.9830 hx        1 MOL      0.134051
     37 H17        -1.4350    9.1930   -1.5180 hx        1 MOL      0.134051
     38 H18        -0.5580    7.1360   -3.3590 hn        1 MOL      0.286404
     39 H19        -1.8990    7.1250   -2.5670 hn        1 MOL      0.286404
     40 H20        -1.5770    8.3940   -3.5180 hn        1 MOL      0.286404
     41 N4          3.8270    3.7310    1.6410 n         1 MOL     -0.343899
     42 C13         4.6720    3.4620    2.8260 c3        1 MOL      0.172752
     43 C14         5.9200    2.6910    2.4400 c         1 MOL      0.318388
     44 O6          6.9230    2.5730    3.1790 o         1 MOL     -0.550138
     45 C15         3.9010    2.8590    3.9340 c3        1 MOL     -0.219373
     46 C16         2.9120    1.7710    3.4820 c         1 MOL      0.764716
     47 O7          3.1500    1.2000    2.4310 o         1 MOL     -0.735138
     48 O8          1.8700    1.5840    4.1540 o         1 MOL     -0.735138
     49 H21         3.4820    2.8690    1.2560 hn        1 MOL      0.312751
     50 H22         5.0740    4.3840    3.2250 h1        1 MOL      0.061997
     51 H23         3.3060    3.6220    4.4430 hc        1 MOL      0.052770
     52 H24         4.6080    2.4780    4.6730 hc        1 MOL      0.052770
     53 N5          5.9560    2.1340    1.2530 n         1 MOL      0.061588
     54 C17         7.1160    1.4620    0.5790 c3        1 MOL     -0.329773
     55 C18         7.5450    0.0830    1.1840 c         1 MOL      0.666877
     56 O9          8.6810   -0.2800    1.2390 o         1 MOL     -0.597547
     57 H25         5.0480    2.1790    0.8140 hn        1 MOL     -0.104693
     58 H26         7.9420    2.1710    0.5970 h1        1 MOL      0.144977
     59 H27         6.7620    1.4320   -0.4530 h1        1 MOL      0.144977
     60 N6          6.5780   -0.8060    1.4490 n         1 MOL     -0.347816
     61 C19         6.6280   -2.2590    1.8770 c3        1 MOL      0.042030
     62 C20         6.6030   -3.2540    0.6880 c         1 MOL      0.403628
     63 O10         6.5980   -4.4470    0.9830 o         1 MOL     -0.522157
     64 C21         5.5680   -2.6360    2.9430 c3        1 MOL     -0.197535
     65 C22         4.1460   -2.3010    2.6230 c         1 MOL      0.802855
     66 O11         3.7820   -2.5300    1.4950 o         1 MOL     -0.730557
     67 O12         3.2440   -1.9630    3.4530 o         1 MOL     -0.730557
     68 H28         5.6710   -0.5610    1.0780 hn        1 MOL      0.164652
     69 H29         7.6000   -2.4360    2.3360 h1        1 MOL      0.114716
     70 H30         5.8680   -2.1850    3.8950 hc        1 MOL      0.055656
     71 H31         5.6860   -3.6970    3.1760 hc        1 MOL      0.055656
     72 N7          6.6810   -2.6380   -0.5160 n         1 MOL     -0.309025
     73 C23         6.6330   -3.3920   -1.7600 c3        1 MOL     -0.025140
     74 C24         5.2600   -4.0850   -2.1100 c         1 MOL      0.436841
     75 O13         5.3030   -4.8290   -3.0810 o         1 MOL     -0.537077
     76 H32         6.7530   -1.6260   -0.4820 hn        1 MOL      0.286481
     77 H33         7.3640   -4.1900   -1.8360 h1        1 MOL      0.073322
     78 H34         6.9290   -2.7560   -2.5890 h1        1 MOL      0.073322
     79 N8          4.1520   -3.6920   -1.4450 n         1 MOL     -0.099757
     80 C25         2.8110   -4.1970   -1.6570 c3        1 MOL     -0.373291
     81 C26         1.6660   -3.1400   -1.7370 c         1 MOL      0.844416
     82 O14         1.6140   -2.1680   -0.9460 o         1 MOL     -0.704917
     83 C27         2.5440   -5.2660   -0.6150 c3        1 MOL      0.503117
     84 C28         3.3660   -6.5370   -0.7640 c3        1 MOL     -0.524356
     85 O15         2.7670   -4.8140    0.7160 oh        1 MOL     -0.625406
     86 H35         4.3130   -2.8770   -0.8760 hn        1 MOL      0.152289
     87 H36         2.8960   -4.7740   -2.5720 h1        1 MOL      0.124411
     88 H37         1.4780   -5.5190   -0.6420 h1        1 MOL     -0.047050
     89 H38         3.2140   -3.9680    0.6060 ho        1 MOL      0.452522
     90 H39         3.2050   -6.8370   -1.7960 hc        1 MOL      0.136187
     91 H40         4.4280   -6.3540   -0.6200 hc        1 MOL      0.136187
     92 H41         3.1760   -7.2780    0.0140 hc        1 MOL      0.136187
     93 N9          0.6210   -3.3630   -2.5510 n         1 MOL     -0.709434
     94 C29        -0.6480   -2.5050   -2.5540 c3        1 MOL      0.110000
     95 C30        -1.8300   -3.2100   -1.8450 c         1 MOL      0.585254
     96 O16        -2.1950   -4.3230   -2.1490 o         1 MOL     -0.552152
     97 C31        -1.1030   -2.0370   -3.9340 c3        1 MOL      0.149716
     98 C32         0.1370   -1.7070   -4.8280 c3        1 MOL      0.176551
     99 C33        -1.9580   -0.6500   -3.8070 c3        1 MOL     -0.806030
    100 C34        -0.2420   -1.3760   -6.2530 c3        1 MOL     -0.231297
    101 H42         0.6210   -4.3150   -2.9010 hn        1 MOL      0.319001
    102 H43        -0.4660   -1.5510   -2.0720 h1        1 MOL      0.134824
    103 H44        -1.6680   -2.8850   -4.3260 hc        1 MOL     -0.006423
    104 H45         0.8930   -2.4850   -4.8410 hc        1 MOL     -0.016622
    105 H46         0.7430   -0.9100   -4.3850 hc        1 MOL     -0.016622
    106 H47        -2.7300   -0.7270   -3.0440 hc        1 MOL      0.199119
    107 H48        -1.2190    0.0280   -3.3960 hc        1 MOL      0.199119
    108 H49        -2.4020   -0.3680   -4.7680 hc        1 MOL      0.199119
    109 H50         0.6610   -1.2880   -6.8630 hc        1 MOL      0.050546
    110 H51        -0.7740   -2.2050   -6.7050 hc        1 MOL      0.050546
    111 H52        -0.8530   -0.4830   -6.3180 hc        1 MOL      0.050546
    112 N10        -2.5520   -2.4210   -1.0200 n         1 MOL     -0.320933
    113 C35        -3.6650   -2.8790   -0.1660 c3        1 MOL     -0.006964
    114 C36        -5.0000   -2.3900   -0.6900 c         1 MOL      0.444687
    115 O17        -5.0770   -1.5000   -1.4660 o         1 MOL     -0.388758
    116 C37        -3.5610   -2.4300    1.2880 c3        1 MOL      0.083470
    117 C38        -2.3800   -3.2250    1.9910 c3        1 MOL     -0.358043
    118 O18        -3.2860   -1.0810    1.3960 oh        1 MOL     -0.450621
    119 H53        -2.2980   -1.4440   -0.8840 hn        1 MOL      0.273309
    120 H54        -3.6650   -3.9690   -0.1820 h1        1 MOL      0.080520
    121 H55        -4.4320   -2.5220    1.9290 h1        1 MOL      0.041681
    122 H56        -2.3850   -1.0530    1.0840 ho        1 MOL      0.281092
    123 H57        -1.6200   -3.4150    1.2330 hc        1 MOL      0.108864
    124 H58        -2.0270   -2.7010    2.8730 hc        1 MOL      0.108864
    125 H59        -2.6320   -4.1920    2.4260 hc        1 MOL      0.108864
    126 N11        -6.1150   -2.8160   -0.0830 n         1 MOL     -0.398029
    127 C39        -7.4560   -2.3780   -0.4650 c3        1 MOL      0.041946
    128 C40        -7.7280   -0.9060   -0.2150 c         1 MOL      0.174438
    129 O19        -8.3800   -0.1990   -0.9890 o         1 MOL     -0.453889
    130 C41        -8.5290   -3.1810    0.3020 c3        1 MOL      0.186939
    131 C42        -8.8290   -4.5100   -0.3950 c3        1 MOL     -0.456146
    132 O20        -8.0520   -3.4660    1.6680 oh        1 MOL     -0.667810
    133 H60        -6.1010   -3.4850    0.6680 hn        1 MOL      0.241314
    134 H61        -7.4780   -2.5160   -1.5460 h1        1 MOL      0.128560
    135 H62        -9.4080   -2.5420    0.3190 h1        1 MOL      0.103970
    136 H63        -8.3310   -4.3680    1.8260 ho        1 MOL      0.445721
    137 H64        -9.5680   -5.0480    0.1870 hc        1 MOL      0.135850
    138 H65        -9.0140   -4.2700   -1.4390 hc        1 MOL      0.135850
    139 H66        -7.9830   -5.1870   -0.2910 hc        1 MOL      0.135850
    140 N12        -7.1870   -0.4190    0.9000 n         1 MOL     -0.024749
    141 C43        -7.1750    0.9830    1.3080 c3        1 MOL     -0.064716
    142 C44        -6.2290    1.8330    0.3930 c         1 MOL      0.475341
    143 O21        -6.6470    2.8640   -0.0840 o         1 MOL     -0.496134
    144 C45        -6.7050    1.1340    2.7590 c3        1 MOL     -0.257315
    145 C46        -7.9600    0.8200    3.6980 c3        1 MOL      0.224275
    146 C47        -7.7480    0.9590    5.1770 c3        1 MOL     -0.118923
    147 C48        -6.7380   -0.0690    5.6170 c3        1 MOL      0.158005
    148 N13        -6.4700   -0.0700    7.0430 n4        1 MOL     -0.273238
    149 H67        -6.8330   -1.1570    1.4950 hn        1 MOL      0.217256
    150 H68        -8.1470    1.4360    1.1340 h1        1 MOL      0.103881
    151 H69        -6.4340    2.1590    2.9990 hc        1 MOL      0.090919
    152 H70        -5.9050    0.4800    3.1030 hc        1 MOL      0.090919
    153 H71        -8.3500   -0.1710    3.4590 hc        1 MOL     -0.025296
    154 H72        -8.7560    1.5200    3.4790 hc        1 MOL     -0.025296
    155 H73        -8.6890    0.7920    5.7060 hc        1 MOL      0.040377
    156 H74        -7.3350    1.9390    5.4580 hc        1 MOL      0.040377
    157 H75        -5.7770   -0.0170    5.1180 hx        1 MOL      0.033639
    158 H76        -7.2440   -1.0050    5.3550 hx        1 MOL      0.033639
    159 H77        -5.7330    0.5520    7.3500 hn        1 MOL      0.279684
    160 H78        -7.2370    0.2530    7.6170 hn        1 MOL      0.279684
    161 H79        -6.1810   -0.9900    7.3190 hn        1 MOL      0.279684
    162 N14        -5.0090    1.4310    0.0850 n         1 MOL     -0.286070
    163 C49        -4.1620    2.1810   -0.8910 c3        1 MOL     -0.030988
    164 C50        -4.6500    2.2880   -2.3430 c         1 MOL      0.366474
    165 O22        -4.7550    3.3970   -2.9120 o         1 MOL     -0.533026
    166 C51        -2.7980    1.4670   -0.9570 c3        1 MOL     -0.043182
    167 C52        -1.9450    1.7010    0.2890 c3        1 MOL     -0.140619
    168 C53        -0.7680    0.8430    0.3880 c         1 MOL      0.942289
    169 O23         0.3540    1.3700    0.5510 o         1 MOL     -0.840847
    170 O24        -0.8710   -0.4100    0.4010 o         1 MOL     -0.840847
    171 H80        -4.7420    0.4860    0.2890 hn        1 MOL      0.153860
    172 H81        -3.9930    3.2200   -0.6170 h1        1 MOL      0.091949
    173 H82        -2.2110    1.6390   -1.8620 hc        1 MOL      0.037656
    174 H83        -3.0220    0.4110   -1.1070 hc        1 MOL      0.037656
    175 H84        -2.4190    1.3910    1.2160 hc        1 MOL      0.015239
    176 H85        -1.5950    2.7290    0.3750 hc        1 MOL      0.015239
    177 N15        -5.1860    1.1580   -2.8890 n         1 MOL      0.018504
    178 C54        -5.8440    1.2450   -4.1800 c3        1 MOL     -0.374628
    179 H86        -6.9230    1.3020   -4.0340 h1        1 MOL      0.126790
    180 H87        -5.5010    2.1370   -4.7040 h1        1 MOL      0.126790
    181 H88        -5.6040    0.3610   -4.7710 h1        1 MOL      0.126790
    182 H89        -5.1180    0.3420   -2.3010 hn        1 MOL      0.151712
    183 Ca1         1.7500   -0.7090    1.4400 Ca        1 MOL      1.798065
    184 O25         0.8320   -2.9600    2.2160 oh        1 MOL     -0.804906
    185 H90         0.5060   -3.1280    3.0980 ho        1 MOL      0.384967
    186 H91         1.1390   -3.8140    1.9070 ho        1 MOL      0.384967
    187 O26         0.3050   -0.5030    3.5960 oh        1 MOL     -0.804906
    188 H92         0.6200    0.3470    3.9130 ho        1 MOL      0.384967
    189 H93        -0.2020   -0.8690    4.3160 ho        1 MOL      0.384967
@<TRIPOS>BOND
     1    1    2 1   
     2    1    4 1   
     3    1    5 1   
     4    1    6 1   
     5    2    3 2   
     6    2    7 1   
     7    7    8 1   
     8    7   15 1   
     9    8    9 1   
    10    8   11 1   
    11    8   16 1   
    12    9   10 2   
    13    9   19 1   
    14   11   12 1   
    15   11   17 1   
    16   11   18 1   
    17   12   13 1   
    18   12   14 1   
    19   19   20 1   
    20   19   28 1   
    21   20   21 1   
    22   20   23 1   
    23   20   29 1   
    24   21   22 2   
    25   21   41 1   
    26   23   24 1   
    27   23   30 1   
    28   23   31 1   
    29   24   25 1   
    30   24   32 1   
    31   24   33 1   
    32   25   26 1   
    33   25   34 1   
    34   25   35 1   
    35   26   27 1   
    36   26   36 1   
    37   26   37 1   
    38   27   38 1   
    39   27   39 1   
    40   27   40 1   
    41   41   42 1   
    42   41   49 1   
    43   42   43 1   
    44   42   45 1   
    45   42   50 1   
    46   43   44 2   
    47   43   53 1   
    48   45   46 1   
    49   45   51 1   
    50   45   52 1   
    51   46   47 1   
    52   46   48 1   
    53   53   54 1   
    54   53   57 1   
    55   54   55 1   
    56   54   58 1   
    57   54   59 1   
    58   55   56 2   
    59   55   60 1   
    60   60   61 1   
    61   60   68 1   
    62   61   62 1   
    63   61   64 1   
    64   61   69 1   
    65   62   63 2   
    66   62   72 1   
    67   64   65 1   
    68   64   70 1   
    69   64   71 1   
    70   65   66 1   
    71   65   67 1   
    72   72   73 1   
    73   72   76 1   
    74   73   74 1   
    75   73   77 1   
    76   73   78 1   
    77   74   75 2   
    78   74   79 1   
    79   79   80 1   
    80   79   86 1   
    81   80   81 1   
    82   80   83 1   
    83   80   87 1   
    84   81   82 2   
    85   81   93 1   
    86   83   84 1   
    87   83   85 1   
    88   83   88 1   
    89   84   90 1   
    90   84   91 1   
    91   84   92 1   
    92   85   89 1   
    93   93   94 1   
    94   93  101 1   
    95   94   95 1   
    96   94   97 1   
    97   94  102 1   
    98   95   96 2   
    99   95  112 1   
   100   97   98 1   
   101   97   99 1   
   102   97  103 1   
   103   98  100 1   
   104   98  104 1   
   105   98  105 1   
   106   99  106 1   
   107   99  107 1   
   108   99  108 1   
   109  100  109 1   
   110  100  110 1   
   111  100  111 1   
   112  112  113 1   
   113  112  119 1   
   114  113  114 1   
   115  113  116 1   
   116  113  120 1   
   117  114  115 2   
   118  114  126 1   
   119  116  117 1   
   120  116  118 1   
   121  116  121 1   
   122  117  123 1   
   123  117  124 1   
   124  117  125 1   
   125  118  122 1   
   126  126  127 1   
   127  126  133 1   
   128  127  128 1   
   129  127  130 1   
   130  127  134 1   
   131  128  129 2   
   132  128  140 1   
   133  130  131 1   
   134  130  132 1   
   135  130  135 1   
   136  131  137 1   
   137  131  138 1   
   138  131  139 1   
   139  132  136 1   
   140  140  141 1   
   141  140  149 1   
   142  141  142 1   
   143  141  144 1   
   144  141  150 1   
   145  142  143 2   
   146  142  162 1   
   147  144  145 1   
   148  144  151 1   
   149  144  152 1   
   150  145  146 1   
   151  145  153 1   
   152  145  154 1   
   153  146  147 1   
   154  146  155 1   
   155  146  156 1   
   156  147  148 1   
   157  147  157 1   
   158  147  158 1   
   159  148  159 1   
   160  148  160 1   
   161  148  161 1   
   162  162  163 1   
   163  162  171 1   
   164  163  164 1   
   165  163  166 1   
   166  163  172 1   
   167  164  165 2   
   168  164  177 1   
   169  166  167 1   
   170  166  173 1   
   171  166  174 1   
   172  167  168 1   
   173  167  175 1   
   174  167  176 1   
   175  168  169 1   
   176  168  170 1   
   177  177  178 1   
   178  177  182 1   
   179  178  179 1   
   180  178  180 1   
   181  178  181 1   
   182  184  185 1   
   183  184  186 1   
   184  187  188 1   
   185  187  189 1   
@<TRIPOS>SUBSTRUCTURE
     1 MOL         1 TEMP              0 ****  ****    0 ROOT
