@<TRIPOS>MOLECULE
MOL
  175   173     1     0     0
SMALL
resp


@<TRIPOS>ATOM
      1 C1          0.6270    3.6980    5.3920 c3        1 MOL     -0.407322
      2 C2         -0.0780    3.6770    4.0210 c         1 MOL      0.738900
      3 O1          0.5520    3.8050    2.9870 o         1 MOL     -0.515298
      4 H1          0.3450    4.6020    5.9320 hc        1 MOL      0.098996
      5 H2          0.3260    2.8240    5.9690 hc        1 MOL      0.098996
      6 H3          1.7070    3.6840    5.2470 hc        1 MOL      0.098996
      7 N1         -1.4170    3.5670    3.9870 n         1 MOL     -0.713093
      8 C3         -2.1290    3.3890    2.7050 c3        1 MOL      0.288144
      9 C4         -2.3180    4.7070    1.8720 c         1 MOL      0.578245
     10 O2         -2.0580    5.8190    2.3990 o         1 MOL     -0.598991
     11 C5         -3.4520    2.6820    3.0340 c3        1 MOL     -0.295500
     12 C6         -4.1630    2.1760    1.8260 c         1 MOL      0.634181
     13 O3         -3.5660    1.9260    0.7510 o         1 MOL     -0.640410
     14 O4         -5.4040    2.0820    1.8770 o         1 MOL     -0.640410
     15 H4         -1.9910    3.6020    4.8280 hn        1 MOL      0.334357
     16 H5         -1.4750    2.7700    2.0900 h1        1 MOL     -0.001694
     17 H6         -4.0680    3.2680    3.7180 hc        1 MOL      0.061980
     18 H7         -3.1620    1.8140    3.6400 hc        1 MOL      0.061980
     19 N2         -2.6820    4.6230    0.6240 n         1 MOL     -0.574154
     20 C7         -3.0450    5.6510   -0.3560 c3        1 MOL      0.373482
     21 C8         -4.0570    5.2520   -1.3420 c         1 MOL      0.426532
     22 O5         -4.4060    6.0740   -2.2010 o         1 MOL     -0.558266
     23 C9         -1.7720    6.2010   -1.0510 c3        1 MOL     -0.301781
     24 H8         -2.7890    3.6580    0.3550 hn        1 MOL      0.361840
     25 H9         -3.5280    6.5060    0.1070 h1        1 MOL     -0.013884
     26 H10        -1.1600    5.4280   -1.5360 hc        1 MOL      0.079554
     27 H11        -2.0410    7.0140   -1.7140 hc        1 MOL      0.079554
     28 H12        -1.0630    6.4970   -0.2800 hc        1 MOL      0.079554
     29 N3         -4.4860    3.9590   -1.4180 n         1 MOL     -0.401695
     30 C10        -5.2630    3.3620   -2.5720 c3        1 MOL      0.198614
     31 C11        -6.4020    2.3500   -2.1600 c         1 MOL      0.371399
     32 O6         -7.1550    2.0230   -3.0660 o         1 MOL     -0.520033
     33 C12        -4.2090    2.5670   -3.3860 c3        1 MOL     -0.241823
     34 C13        -3.4450    1.4840   -2.6650 c         1 MOL      0.781020
     35 O7         -2.1820    1.5080   -2.5970 o         1 MOL     -0.733838
     36 O8         -4.0470    0.6870   -1.9150 o         1 MOL     -0.733838
     37 H13        -4.2360    3.2860   -0.7030 hn        1 MOL      0.157949
     38 H14        -5.7080    4.1800   -3.1370 h1        1 MOL      0.066056
     39 H15        -3.5120    3.3260   -3.7380 hc        1 MOL      0.054179
     40 H16        -4.8070    2.1600   -4.2020 hc        1 MOL      0.054179
     41 N4         -6.5720    1.8840   -0.8640 n         1 MOL     -0.284225
     42 C14        -7.6380    0.9430   -0.5150 c3        1 MOL     -0.186694
     43 C15        -7.4990   -0.4880   -1.0920 c         1 MOL      0.486424
     44 O9         -8.4360   -1.2600   -0.8150 o         1 MOL     -0.607016
     45 H17        -5.9880    2.2400   -0.1270 hn        1 MOL      0.220332
     46 H18        -8.5890    1.3180   -0.9160 h1        1 MOL      0.114320
     47 H19        -7.7970    0.8560    0.5630 h1        1 MOL      0.114320
     48 N5         -6.3210   -0.8700   -1.6570 n         1 MOL     -0.211499
     49 C16        -6.0050   -2.2370   -2.0960 c3        1 MOL     -0.023097
     50 C17        -5.9180   -3.2970   -0.9350 c         1 MOL      0.472326
     51 O10        -5.7680   -4.5030   -1.1430 o         1 MOL     -0.499346
     52 C18        -4.8460   -2.2400   -3.1340 c3        1 MOL     -0.204924
     53 C19        -3.4290   -2.3770   -2.5990 c         1 MOL      0.605226
     54 N6         -2.4120   -2.6940   -3.2670 n         1 MOL     -0.520654
     55 O11        -3.1940   -2.0540   -1.4280 o         1 MOL     -0.664221
     56 H20        -5.5490   -0.2200   -1.6630 hn        1 MOL      0.222015
     57 H21        -6.8980   -2.5150   -2.6540 h1        1 MOL      0.102981
     58 H22        -4.8740   -1.3910   -3.8260 hc        1 MOL      0.071099
     59 H23        -5.0000   -3.1350   -3.7470 hc        1 MOL      0.071099
     60 H24        -2.5210   -2.8010   -4.2650 hn        1 MOL      0.293251
     61 H25        -1.4950   -2.5460   -2.8840 hn        1 MOL      0.293251
     62 N7         -6.1750   -2.8910    0.3270 n         1 MOL     -0.312714
     63 C20        -6.0400   -3.7900    1.4580 c3        1 MOL     -0.037097
     64 C21        -4.7670   -4.6250    1.6550 c         1 MOL      0.373308
     65 O12        -4.7210   -5.6990    2.2980 o         1 MOL     -0.555457
     66 H26        -6.3230   -1.9410    0.6230 hn        1 MOL      0.297028
     67 H27        -6.8580   -4.5140    1.3620 h1        1 MOL      0.066347
     68 H28        -6.3620   -3.2870    2.3680 h1        1 MOL      0.066347
     69 N8         -3.7150   -4.0110    1.1980 n         1 MOL     -0.000226
     70 C22        -2.3400   -4.5590    1.2290 c3        1 MOL     -0.129250
     71 C23        -1.2520   -3.4080    1.3540 c         1 MOL      0.401431
     72 O13        -1.3530   -2.2830    0.8330 o         1 MOL     -0.478645
     73 C24        -2.0010   -5.4410    0.0220 c3        1 MOL      0.561330
     74 C25        -2.8660   -6.7720   -0.1000 c3        1 MOL     -0.428565
     75 O14        -2.3180   -4.7340   -1.1920 oh        1 MOL     -0.681696
     76 H29        -3.8420   -3.0680    0.8800 hn        1 MOL      0.029268
     77 H30        -2.1010   -5.1560    2.1130 h1        1 MOL      0.042964
     78 H31        -0.9940   -5.8440    0.0850 h1        1 MOL     -0.028769
     79 H32        -2.8460   -3.9440   -1.0460 ho        1 MOL      0.394966
     80 H33        -2.5160   -7.4230    0.7060 hc        1 MOL      0.095424
     81 H34        -3.9250   -6.5820    0.0700 hc        1 MOL      0.095424
     82 H35        -2.6840   -7.2230   -1.0750 hc        1 MOL      0.095424
     83 N9         -0.1380   -3.6990    1.9540 n         1 MOL     -0.302972
     84 C26         1.0380   -2.7960    2.0750 c3        1 MOL     -0.105836
     85 C27         1.8880   -3.0160    0.8610 c         1 MOL      0.503696
     86 O15         2.6020   -3.9960    0.7130 o         1 MOL     -0.575288
     87 C28         1.7620   -2.9720    3.4280 c3        1 MOL      0.194038
     88 C29         0.9190   -2.6090    4.6810 c3        1 MOL      0.003093
     89 C30         2.8880   -1.9220    3.4340 c3        1 MOL     -0.255865
     90 C31         1.3180   -3.3530    5.9810 c3        1 MOL     -0.119944
     91 H36         0.0380   -4.6860    2.0980 hn        1 MOL      0.237142
     92 H37         0.6730   -1.7700    2.0750 h1        1 MOL      0.076353
     93 H38         2.2270   -3.9540    3.5420 hc        1 MOL     -0.008835
     94 H39        -0.1290   -2.8340    4.4700 hc        1 MOL     -0.001375
     95 H40         1.0360   -1.5360    4.8370 hc        1 MOL     -0.001375
     96 H41         3.5310   -2.0870    4.3030 hc        1 MOL      0.066796
     97 H42         3.6230   -2.0850    2.6420 hc        1 MOL      0.066796
     98 H43         2.5160   -0.9170    3.2860 hc        1 MOL      0.066796
     99 H44         2.3780   -3.2910    6.2310 hc        1 MOL      0.020939
    100 H45         0.7650   -2.9400    6.8220 hc        1 MOL      0.020939
    101 H46         0.9790   -4.3820    5.8180 hc        1 MOL      0.020939
    102 N10         1.8280   -2.0050   -0.0180 n         1 MOL     -0.331323
    103 C32         2.7090   -1.8970   -1.1810 c3        1 MOL      0.149497
    104 C33         4.1490   -1.4760   -0.8520 c         1 MOL      0.419710
    105 O16         4.4220   -0.9720    0.2060 o         1 MOL     -0.341655
    106 C34         2.0990   -0.9320   -2.2380 c3        1 MOL     -0.252245
    107 C35         0.6510   -1.2890   -2.6360 c         1 MOL      0.680299
    108 O17        -0.2650   -0.8580   -1.9050 o         1 MOL     -0.658701
    109 O18         0.4510   -1.9080   -3.7040 o         1 MOL     -0.658701
    110 H47         1.2100   -1.2450    0.2310 hn        1 MOL      0.215957
    111 H48         2.9010   -2.8330   -1.6980 h1        1 MOL      0.043488
    112 H49         2.7290   -1.1680   -3.0930 hc        1 MOL      0.076057
    113 H50         2.2220    0.1050   -1.9010 hc        1 MOL      0.076057
    114 N11         5.0790   -1.5490   -1.8420 n         1 MOL     -0.632587
    115 C36         6.4630   -1.1680   -1.5860 c3        1 MOL      0.464458
    116 C37         6.6890    0.3550   -1.4230 c         1 MOL      0.298012
    117 O19         7.2610    0.7650   -0.4580 o         1 MOL     -0.471686
    118 C38         7.4750   -1.9020   -2.4680 c3        1 MOL     -0.181056
    119 C39         8.8900   -1.8900   -1.9760 ca        1 MOL      0.036646
    120 C40         9.3750   -2.7220   -0.9870 ca        1 MOL     -0.143402
    121 C41         9.7940   -0.8480   -2.4680 ca        1 MOL     -0.143402
    122 C42        10.6560   -2.5440   -0.5050 ca        1 MOL     -0.119162
    123 C43        11.1210   -0.8070   -2.0530 ca        1 MOL     -0.119162
    124 C44        11.5630   -1.6360   -1.0810 ca        1 MOL     -0.069430
    125 H51         4.8760   -2.0490   -2.6980 hn        1 MOL      0.317236
    126 H52         6.6990   -1.5960   -0.6110 h1        1 MOL      0.032832
    127 H53         7.4210   -1.5360   -3.4940 hc        1 MOL      0.047296
    128 H54         7.0990   -2.9290   -2.4610 hc        1 MOL      0.047296
    129 H55         8.7250   -3.4850   -0.5870 ha        1 MOL      0.118633
    130 H56         9.4220   -0.1780   -3.2240 ha        1 MOL      0.118633
    131 H57        11.0090   -3.1520    0.3140 ha        1 MOL      0.102978
    132 H58        11.8200   -0.0970   -2.4750 ha        1 MOL      0.102978
    133 H59        12.6210   -1.6670   -0.8500 ha        1 MOL      0.085539
    134 N12         6.0170    1.2690   -2.1920 n         1 MOL     -0.128030
    135 C45         6.0150    2.7360   -1.9340 c3        1 MOL      0.056516
    136 C46         5.4500    3.1560   -0.5460 c         1 MOL      0.266245
    137 O20         5.6970    4.2380   -0.0280 o         1 MOL     -0.505039
    138 C47         4.9530    3.3050   -2.9520 c3        1 MOL     -0.090880
    139 C48         5.1520    2.3600   -4.0930 c3        1 MOL     -0.098956
    140 C49         5.2390    1.0130   -3.3740 c3        1 MOL      0.059104
    141 H60         7.0140    3.1640   -1.9990 h1        1 MOL      0.070878
    142 H61         3.9960    3.1530   -2.4490 hc        1 MOL      0.068652
    143 H62         5.2810    4.3360   -3.1170 hc        1 MOL      0.068652
    144 H63         4.2600    2.4160   -4.7190 hc        1 MOL      0.045355
    145 H64         6.0870    2.5390   -4.6340 hc        1 MOL      0.045355
    146 H65         4.3000    0.5310   -3.1150 h1        1 MOL     -0.006593
    147 H66         5.8150    0.2730   -3.9450 h1        1 MOL     -0.006593
    148 N13         4.7280    2.2570    0.1490 n         1 MOL      0.045985
    149 C50         4.2480    2.4870    1.5150 c3        1 MOL     -0.204526
    150 C51         5.2090    1.9430    2.6250 c         1 MOL      0.554880
    151 O21         5.3470    2.5280    3.6770 o         1 MOL     -0.559341
    152 C52         2.8450    1.8240    1.6530 c3        1 MOL     -0.043566
    153 C53         1.8420    2.2140    0.5630 c3        1 MOL     -0.021664
    154 C54         0.5250    1.4460    0.5650 c         1 MOL      0.609257
    155 O22        -0.4710    2.0110   -0.0180 o         1 MOL     -0.685943
    156 O23         0.4830    0.2610    0.9950 o         1 MOL     -0.685943
    157 H67         4.8310    1.3030   -0.1720 hn        1 MOL      0.022395
    158 H68         4.1680    3.5720    1.5970 h1        1 MOL      0.125800
    159 H69         2.5400    2.1360    2.6490 hc        1 MOL      0.030620
    160 H70         2.9670    0.7400    1.7400 hc        1 MOL      0.030620
    161 H71         2.1940    2.1900   -0.4660 hc        1 MOL      0.052325
    162 H72         1.5910    3.2700    0.7020 hc        1 MOL      0.052325
    163 N14         5.8800    0.8410    2.2410 n         1 MOL     -0.144011
    164 C55         6.8110    0.0200    3.0490 c3        1 MOL     -0.165465
    165 H73         7.8370    0.3150    2.8300 h1        1 MOL      0.075146
    166 H74         6.6080    0.1750    4.1080 h1        1 MOL      0.075146
    167 H75         6.6760   -1.0330    2.8030 h1        1 MOL      0.075146
    168 H76         5.4390    0.4620    1.4070 hn        1 MOL      0.060362
    169 Ca1        -2.0040    0.0130   -0.2830 Ca        1 MOL      1.736232
    170 O24        -1.7130    0.1040    2.6410 oh        1 MOL     -0.769713
    171 H77        -1.5300    0.3600    3.5470 ho        1 MOL      0.380847
    172 H78        -0.8680    0.1390    2.2070 ho        1 MOL      0.380847
    173 O25        -3.8880   -1.1240    1.3340 oh        1 MOL     -0.769713
    174 H79        -4.7520   -0.7980    1.5980 ho        1 MOL      0.380847
    175 H80        -3.2910   -0.7950    2.0030 ho        1 MOL      0.380847
@<TRIPOS>BOND
     1    1    2 1   
     2    1    4 1   
     3    1    5 1   
     4    1    6 1   
     5    2    3 2   
     6    2    7 1   
     7    7    8 1   
     8    7   15 1   
     9    8    9 1   
    10    8   11 1   
    11    8   16 1   
    12    9   10 2   
    13    9   19 1   
    14   11   12 1   
    15   11   17 1   
    16   11   18 1   
    17   12   13 1   
    18   12   14 1   
    19   19   20 1   
    20   19   24 1   
    21   20   21 1   
    22   20   23 1   
    23   20   25 1   
    24   21   22 2   
    25   21   29 1   
    26   23   26 1   
    27   23   27 1   
    28   23   28 1   
    29   29   30 1   
    30   29   37 1   
    31   30   31 1   
    32   30   33 1   
    33   30   38 1   
    34   31   32 2   
    35   31   41 1   
    36   33   34 1   
    37   33   39 1   
    38   33   40 1   
    39   34   35 1   
    40   34   36 1   
    41   41   42 1   
    42   41   45 1   
    43   42   43 1   
    44   42   46 1   
    45   42   47 1   
    46   43   44 2   
    47   43   48 1   
    48   48   49 1   
    49   48   56 1   
    50   49   50 1   
    51   49   52 1   
    52   49   57 1   
    53   50   51 2   
    54   50   62 1   
    55   52   53 1   
    56   52   58 1   
    57   52   59 1   
    58   53   54 1   
    59   53   55 2   
    60   54   60 1   
    61   54   61 1   
    62   62   63 1   
    63   62   66 1   
    64   63   64 1   
    65   63   67 1   
    66   63   68 1   
    67   64   65 2   
    68   64   69 1   
    69   69   70 1   
    70   69   76 1   
    71   70   71 1   
    72   70   73 1   
    73   70   77 1   
    74   71   72 2   
    75   71   83 1   
    76   73   74 1   
    77   73   75 1   
    78   73   78 1   
    79   74   80 1   
    80   74   81 1   
    81   74   82 1   
    82   75   79 1   
    83   83   84 1   
    84   83   91 1   
    85   84   85 1   
    86   84   87 1   
    87   84   92 1   
    88   85   86 2   
    89   85  102 1   
    90   87   88 1   
    91   87   89 1   
    92   87   93 1   
    93   88   90 1   
    94   88   94 1   
    95   88   95 1   
    96   89   96 1   
    97   89   97 1   
    98   89   98 1   
    99   90   99 1   
   100   90  100 1   
   101   90  101 1   
   102  102  103 1   
   103  102  110 1   
   104  103  104 1   
   105  103  106 1   
   106  103  111 1   
   107  104  105 2   
   108  104  114 1   
   109  106  107 1   
   110  106  112 1   
   111  106  113 1   
   112  107  108 1   
   113  107  109 1   
   114  114  115 1   
   115  114  125 1   
   116  115  116 1   
   117  115  118 1   
   118  115  126 1   
   119  116  117 2   
   120  116  134 1   
   121  118  119 1   
   122  118  127 1   
   123  118  128 1   
   124  119  120 ar  
   125  119  121 ar  
   126  120  122 ar  
   127  120  129 1   
   128  121  123 ar  
   129  121  130 1   
   130  122  124 ar  
   131  122  131 1   
   132  123  124 ar  
   133  123  132 1   
   134  124  133 1   
   135  134  135 1   
   136  134  140 1   
   137  135  136 1   
   138  135  138 1   
   139  135  141 1   
   140  136  137 2   
   141  136  148 1   
   142  138  139 1   
   143  138  142 1   
   144  138  143 1   
   145  139  140 1   
   146  139  144 1   
   147  139  145 1   
   148  140  146 1   
   149  140  147 1   
   150  148  149 1   
   151  148  157 1   
   152  149  150 1   
   153  149  152 1   
   154  149  158 1   
   155  150  151 2   
   156  150  163 1   
   157  152  153 1   
   158  152  159 1   
   159  152  160 1   
   160  153  154 1   
   161  153  161 1   
   162  153  162 1   
   163  154  155 1   
   164  154  156 1   
   165  163  164 1   
   166  163  168 1   
   167  164  165 1   
   168  164  166 1   
   169  164  167 1   
   170  170  171 1   
   171  170  172 1   
   172  173  174 1   
   173  173  175 1   
@<TRIPOS>SUBSTRUCTURE
     1 MOL         1 TEMP              0 ****  ****    0 ROOT
