@<TRIPOS>MOLECULE
MOL
  189   185     1     0     0
SMALL
resp


@<TRIPOS>ATOM
      1 C1         -0.1560    3.1510   -5.3180 c3        1 MOL     -0.311750
      2 C2          0.2700    2.8630   -3.8680 c         1 MOL      0.674283
      3 O1         -0.4160    3.2590   -2.9250 o         1 MOL     -0.653447
      4 H1          0.6530    2.8750   -5.9950 hc        1 MOL      0.083563
      5 H2         -1.0460    2.5670   -5.5580 hc        1 MOL      0.083563
      6 H3         -0.3750    4.2120   -5.4290 hc        1 MOL      0.083563
      7 N1          1.4500    2.2790   -3.6380 n         1 MOL     -0.607521
      8 C3          2.0920    1.9090   -2.4030 c3        1 MOL      0.429749
      9 C4          2.5300    3.1470   -1.5640 c         1 MOL      0.147168
     10 O2          3.6390    3.7270   -1.8570 o         1 MOL     -0.507819
     11 C5          3.3000    0.9830   -2.6120 c3        1 MOL     -0.283109
     12 C6          3.9080    0.5700   -1.3030 c         1 MOL      0.784610
     13 O3          5.0260   -0.0400   -1.2190 o         1 MOL     -0.717655
     14 O4          3.3000    0.7440   -0.2170 o         1 MOL     -0.717655
     15 H4          1.9800    1.9270   -4.4290 hn        1 MOL      0.318570
     16 H5          1.3770    1.2730   -1.8620 h1        1 MOL     -0.076825
     17 H6          3.9860    1.5220   -3.2620 hc        1 MOL      0.067698
     18 H7          3.0120    0.1060   -3.2010 hc        1 MOL      0.067698
     19 N2          1.6950    3.6050   -0.6810 n         1 MOL      0.019726
     20 C7          1.8060    4.7950    0.1820 c3        1 MOL     -0.122387
     21 C8          2.7610    4.8030    1.3410 c         1 MOL      0.521700
     22 O5          2.9940    5.8560    1.9360 o         1 MOL     -0.596335
     23 C9          0.3830    5.2120    0.6790 c3        1 MOL     -0.140164
     24 C10        -0.4380    5.6700   -0.4940 c3        1 MOL      0.085017
     25 C11        -0.1350    7.1620   -0.7850 c3        1 MOL     -0.192194
     26 C12        -1.0530    7.8030   -1.8920 c3        1 MOL      0.022824
     27 N3         -0.8760    7.1950   -3.1870 n4        1 MOL     -0.408382
     28 H8          0.8150    3.1050   -0.6450 hn        1 MOL      0.393225
     29 H9          2.0910    5.6900   -0.3830 h1        1 MOL      0.056999
     30 H10         0.3730    5.9770    1.4590 hc        1 MOL      0.075500
     31 H11        -0.1500    4.3420    1.0570 hc        1 MOL      0.075500
     32 H12        -1.4550    5.4590   -0.1610 hc        1 MOL      0.004652
     33 H13        -0.2340    5.0240   -1.3530 hc        1 MOL      0.004652
     34 H14         0.8650    7.3560   -1.1540 hc        1 MOL      0.096952
     35 H15        -0.2710    7.8350    0.0630 hc        1 MOL      0.096952
     36 H16        -0.9730    8.8830   -1.9580 hx        1 MOL      0.082664
     37 H17        -2.0790    7.7310   -1.5260 hx        1 MOL      0.082664
     38 H18        -0.8630    6.1770   -3.2450 hn        1 MOL      0.341766
     39 H19        -1.6620    7.4980   -3.7470 hn        1 MOL      0.341766
     40 H20        -0.0070    7.5370   -3.5920 hn        1 MOL      0.341766
     41 N4          3.4240    3.7100    1.5790 n         1 MOL     -0.064588
     42 C13         4.6070    3.5800    2.4970 c3        1 MOL     -0.059023
     43 C14         5.8930    2.8810    1.9730 c         1 MOL      0.445278
     44 O6          6.8920    2.9380    2.6710 o         1 MOL     -0.503999
     45 C15         4.1320    2.9150    3.7620 c3        1 MOL     -0.189808
     46 C16         3.2930    1.6200    3.4890 c         1 MOL      0.727356
     47 O7          2.4630    1.3680    4.4430 o         1 MOL     -0.665309
     48 O8          3.6020    0.7970    2.6330 o         1 MOL     -0.665309
     49 H21         3.1500    2.9370    0.9970 hn        1 MOL     -0.135429
     50 H22         5.0470    4.5570    2.7070 h1        1 MOL      0.115378
     51 H23         3.5160    3.6540    4.2720 hc        1 MOL      0.067507
     52 H24         4.9650    2.6890    4.4180 hc        1 MOL      0.067507
     53 N5          5.8950    2.3000    0.7620 n         1 MOL     -0.307821
     54 C17         7.1300    1.6550    0.2850 c3        1 MOL     -0.074701
     55 C18         7.4860    0.3640    0.9980 c         1 MOL      0.440295
     56 O9          8.7140   -0.0070    1.0560 o         1 MOL     -0.589520
     57 H25         5.1540    2.3610    0.0840 hn        1 MOL      0.280758
     58 H26         7.9790    2.3370    0.3850 h1        1 MOL      0.077725
     59 H27         7.1050    1.3880   -0.7730 h1        1 MOL      0.077725
     60 N6          6.4950   -0.3610    1.4760 n         1 MOL     -0.167942
     61 C19         6.6060   -1.7080    2.0490 c3        1 MOL     -0.044835
     62 C20         6.8090   -2.8380    1.0760 c         1 MOL      0.455860
     63 O10         6.9230   -4.0360    1.4310 o         1 MOL     -0.527613
     64 C21         5.4910   -2.0230    3.0830 c3        1 MOL     -0.314857
     65 C22         4.1080   -2.1840    2.5590 c         1 MOL      0.920204
     66 O11         3.7920   -2.4850    1.4050 o         1 MOL     -0.757440
     67 O12         3.1820   -2.1400    3.4400 o         1 MOL     -0.757440
     68 H28         5.5600   -0.0260    1.2820 hn        1 MOL      0.245206
     69 H29         7.6050   -1.6890    2.4870 h1        1 MOL      0.108884
     70 H30         5.5510   -1.1440    3.7240 hc        1 MOL      0.099907
     71 H31         5.8570   -2.8980    3.6100 hc        1 MOL      0.099907
     72 N7          6.7480   -2.4940   -0.2520 n         1 MOL     -0.341505
     73 C23         6.6980   -3.4730   -1.3770 c3        1 MOL     -0.144276
     74 C24         5.3120   -4.0940   -1.7440 c         1 MOL      0.490394
     75 O13         5.3300   -4.9580   -2.6100 o         1 MOL     -0.540095
     76 H32         6.6570   -1.5060   -0.4460 hn        1 MOL      0.305752
     77 H33         7.4300   -4.2560   -1.1640 h1        1 MOL      0.103461
     78 H34         6.9870   -2.9970   -2.3030 h1        1 MOL      0.103461
     79 N8          4.1310   -3.5760   -1.2340 n         1 MOL     -0.076693
     80 C25         2.8040   -4.1400   -1.5430 c3        1 MOL     -0.343600
     81 C26         1.7230   -3.1170   -1.3860 c         1 MOL      0.632753
     82 O14         1.9370   -2.1040   -0.6700 o         1 MOL     -0.580846
     83 C27         2.4530   -5.2970   -0.5690 c3        1 MOL      0.591562
     84 C28         3.2590   -6.5680   -0.7010 c3        1 MOL     -0.570862
     85 O15         2.6220   -4.8320    0.7870 oh        1 MOL     -0.716755
     86 H35         4.0960   -2.7650   -0.6340 hn        1 MOL      0.115267
     87 H36         2.8520   -4.5030   -2.5710 h1        1 MOL      0.094680
     88 H37         1.4200   -5.5900   -0.7290 h1        1 MOL     -0.043711
     89 H38         3.1580   -4.0330    0.8560 ho        1 MOL      0.445564
     90 H39         4.2700   -6.4510   -0.3340 hc        1 MOL      0.148350
     91 H40         2.7840   -7.3350   -0.0920 hc        1 MOL      0.148350
     92 H41         3.3790   -6.8620   -1.7410 hc        1 MOL      0.148350
     93 N9          0.6020   -3.4420   -2.0610 n         1 MOL     -0.510040
     94 C29        -0.5750   -2.6380   -2.0660 c3        1 MOL     -0.042325
     95 C30        -1.7330   -3.4490   -1.4580 c         1 MOL      0.490601
     96 O16        -2.2830   -4.3670   -2.0710 o         1 MOL     -0.526901
     97 C31        -0.7940   -2.1840   -3.5860 c3        1 MOL      0.275182
     98 C32         0.3810   -2.3350   -4.5310 c3        1 MOL      0.031835
     99 C33        -1.4230   -0.8100   -3.5390 c3        1 MOL     -0.447453
    100 C34         0.1650   -1.8670   -5.9720 c3        1 MOL     -0.301117
    101 H42         0.5980   -4.3410   -2.5130 hn        1 MOL      0.292963
    102 H43        -0.2770   -1.7960   -1.4430 h1        1 MOL      0.156864
    103 H44        -1.5460   -2.8660   -3.9670 hc        1 MOL     -0.031925
    104 H45         0.6310   -3.3900   -4.6390 hc        1 MOL      0.018820
    105 H46         1.2690   -1.8640   -4.1210 hc        1 MOL      0.018820
    106 H47        -1.9410   -0.6030   -4.4810 hc        1 MOL      0.091648
    107 H48        -2.2000   -0.9150   -2.7800 hc        1 MOL      0.091648
    108 H49        -0.6760   -0.0390   -3.3520 hc        1 MOL      0.091648
    109 H50        -0.2050   -0.8440   -5.9390 hc        1 MOL      0.074909
    110 H51         1.0500   -1.7090   -6.5890 hc        1 MOL      0.074909
    111 H52        -0.5290   -2.5290   -6.4940 hc        1 MOL      0.074909
    112 N10        -2.2540   -2.9530   -0.3180 n         1 MOL     -0.370615
    113 C35        -3.5820   -3.3330    0.2820 c3        1 MOL      0.107105
    114 C36        -4.7240   -2.7380   -0.5110 c         1 MOL      0.259007
    115 O17        -4.4990   -1.9880   -1.4950 o         1 MOL     -0.316588
    116 C37        -3.5850   -2.7690    1.6960 c3        1 MOL      0.186501
    117 C38        -2.7570   -3.5000    2.8510 c3        1 MOL     -0.329976
    118 O18        -3.2740   -1.4070    1.7420 oh        1 MOL     -0.329133
    119 H53        -1.7630   -2.1980    0.1390 hn        1 MOL      0.282945
    120 H54        -3.8070   -4.3860    0.4500 h1        1 MOL      0.078426
    121 H55        -4.6240   -2.8300    2.0350 h1        1 MOL     -0.038735
    122 H56        -3.1310   -1.2180    2.6730 ho        1 MOL      0.325393
    123 H57        -2.7320   -2.9050    3.7670 hc        1 MOL      0.089893
    124 H58        -3.1480   -4.5120    2.9970 hc        1 MOL      0.089893
    125 H59        -1.7660   -3.5800    2.4170 hc        1 MOL      0.089893
    126 N11        -5.9600   -2.8960   -0.0330 n         1 MOL     -0.162100
    127 C39        -7.1890   -2.2720   -0.6330 c3        1 MOL     -0.271212
    128 C40        -7.1620   -0.7540   -0.4310 c         1 MOL      0.563135
    129 O19        -7.1960   -0.0260   -1.4310 o         1 MOL     -0.485111
    130 C41        -8.4780   -2.8990    0.0190 c3        1 MOL      0.242191
    131 C42        -8.8220   -4.1820   -0.7270 c3        1 MOL     -0.229859
    132 O20        -8.1910   -3.2040    1.3600 oh        1 MOL     -0.584474
    133 H60        -5.9980   -3.5110    0.7640 hn        1 MOL      0.229891
    134 H61        -7.2230   -2.4460   -1.7110 h1        1 MOL      0.183342
    135 H62        -9.3060   -2.2060   -0.0190 h1        1 MOL      0.046813
    136 H63        -8.9720   -3.0010    1.8820 ho        1 MOL      0.390157
    137 H64        -8.1170   -5.0030   -0.5810 hc        1 MOL      0.076658
    138 H65        -9.7530   -4.6090   -0.3610 hc        1 MOL      0.076658
    139 H66        -8.9380   -4.1080   -1.8130 hc        1 MOL      0.076658
    140 N12        -6.8900   -0.1570    0.8100 n         1 MOL     -0.454166
    141 C43        -6.7600    1.2760    1.1210 c3        1 MOL      0.029432
    142 C44        -5.8300    1.9560    0.1230 c         1 MOL      0.404486
    143 O21        -6.1330    3.0850   -0.2690 o         1 MOL     -0.546081
    144 C45        -6.3180    1.4740    2.5510 c3        1 MOL     -0.252095
    145 C46        -7.3130    0.7310    3.5400 c3        1 MOL      0.103956
    146 C47        -7.0850    1.2030    4.9750 c3        1 MOL     -0.035969
    147 C48        -8.0100    0.5560    5.9990 c3        1 MOL     -0.062619
    148 N13        -9.4590    0.8200    5.9040 n4        1 MOL     -0.273608
    149 H67        -6.7360   -0.7720    1.5910 hn        1 MOL      0.202414
    150 H68        -7.7300    1.7180    0.9090 h1        1 MOL      0.104318
    151 H69        -6.2890    2.5230    2.8390 hc        1 MOL      0.100029
    152 H70        -5.3520    1.0040    2.7530 hc        1 MOL      0.100029
    153 H71        -7.0930   -0.3330    3.4730 hc        1 MOL     -0.006062
    154 H72        -8.3570    0.8450    3.2580 hc        1 MOL     -0.006062
    155 H73        -7.3490    2.2680    4.9660 hc        1 MOL      0.054601
    156 H74        -6.0560    1.0320    5.2740 hc        1 MOL      0.054601
    157 H75        -7.7160    0.9700    6.9600 hx        1 MOL      0.103525
    158 H76        -7.8550   -0.5210    5.9630 hx        1 MOL      0.103525
    159 H77        -9.9930    0.3970    6.6520 hn        1 MOL      0.262991
    160 H78        -9.4810    1.8320    5.9520 hn        1 MOL      0.262991
    161 H79        -9.8350    0.5910    4.9960 hn        1 MOL      0.262991
    162 N14        -4.8070    1.2710   -0.3380 n         1 MOL     -0.029740
    163 C49        -3.7880    1.9140   -1.2330 c3        1 MOL     -0.006249
    164 C50        -4.1340    1.7380   -2.7050 c         1 MOL      0.408842
    165 O22        -3.9100    2.7260   -3.4190 o         1 MOL     -0.542160
    166 C51        -2.4300    1.2180   -0.9680 c3        1 MOL      0.026683
    167 C52        -1.8170    1.7530    0.3160 c3        1 MOL     -0.335392
    168 C53        -0.4570    1.0800    0.4840 c         1 MOL      0.744227
    169 O23        -0.2920   -0.1180    0.2420 o         1 MOL     -0.771809
    170 O24         0.4340    1.6670    1.1140 o         1 MOL     -0.771809
    171 H80        -4.7290    0.3720    0.1260 hn        1 MOL      0.026966
    172 H81        -3.6370    2.9770   -1.0640 h1        1 MOL      0.070413
    173 H82        -1.7790    1.5130   -1.7940 hc        1 MOL      0.076143
    174 H83        -2.4740    0.1350   -0.8490 hc        1 MOL      0.076143
    175 H84        -2.4260    1.5030    1.1810 hc        1 MOL      0.053476
    176 H85        -1.6730    2.8280    0.3620 hc        1 MOL      0.053476
    177 N15        -4.8570    0.6340   -3.0810 n         1 MOL     -0.020887
    178 C54        -5.4290    0.6210   -4.4080 c3        1 MOL     -0.362577
    179 H86        -4.6530    0.3820   -5.1350 h1        1 MOL      0.120037
    180 H87        -6.2170   -0.1320   -4.4570 h1        1 MOL      0.120037
    181 H88        -5.8480    1.6010   -4.6330 h1        1 MOL      0.120037
    182 H89        -4.8940   -0.1730   -2.4700 hn        1 MOL      0.113373
    183 Ca1         1.8230   -0.5690    1.4710 Ca        1 MOL      1.775300
    184 O25         0.3290   -0.7570    3.6050 oh        1 MOL     -0.846682
    185 H90         0.8220   -0.4370    4.3620 ho        1 MOL      0.402711
    186 H91        -0.5240   -1.0280    3.9530 ho        1 MOL      0.402711
    187 O26         0.5620   -3.0170    1.6380 oh        1 MOL     -0.846682
    188 H92         1.1950   -3.6440    1.2870 ho        1 MOL      0.402711
    189 H93         0.4930   -3.2370    2.5700 ho        1 MOL      0.402711
@<TRIPOS>BOND
     1    1    2 1   
     2    1    4 1   
     3    1    5 1   
     4    1    6 1   
     5    2    3 2   
     6    2    7 1   
     7    7    8 1   
     8    7   15 1   
     9    8    9 1   
    10    8   11 1   
    11    8   16 1   
    12    9   10 2   
    13    9   19 1   
    14   11   12 1   
    15   11   17 1   
    16   11   18 1   
    17   12   13 1   
    18   12   14 1   
    19   19   20 1   
    20   19   28 1   
    21   20   21 1   
    22   20   23 1   
    23   20   29 1   
    24   21   22 2   
    25   21   41 1   
    26   23   24 1   
    27   23   30 1   
    28   23   31 1   
    29   24   25 1   
    30   24   32 1   
    31   24   33 1   
    32   25   26 1   
    33   25   34 1   
    34   25   35 1   
    35   26   27 1   
    36   26   36 1   
    37   26   37 1   
    38   27   38 1   
    39   27   39 1   
    40   27   40 1   
    41   41   42 1   
    42   41   49 1   
    43   42   43 1   
    44   42   45 1   
    45   42   50 1   
    46   43   44 2   
    47   43   53 1   
    48   45   46 1   
    49   45   51 1   
    50   45   52 1   
    51   46   47 1   
    52   46   48 1   
    53   53   54 1   
    54   53   57 1   
    55   54   55 1   
    56   54   58 1   
    57   54   59 1   
    58   55   56 2   
    59   55   60 1   
    60   60   61 1   
    61   60   68 1   
    62   61   62 1   
    63   61   64 1   
    64   61   69 1   
    65   62   63 2   
    66   62   72 1   
    67   64   65 1   
    68   64   70 1   
    69   64   71 1   
    70   65   66 1   
    71   65   67 1   
    72   72   73 1   
    73   72   76 1   
    74   73   74 1   
    75   73   77 1   
    76   73   78 1   
    77   74   75 2   
    78   74   79 1   
    79   79   80 1   
    80   79   86 1   
    81   80   81 1   
    82   80   83 1   
    83   80   87 1   
    84   81   82 2   
    85   81   93 1   
    86   83   84 1   
    87   83   85 1   
    88   83   88 1   
    89   84   90 1   
    90   84   91 1   
    91   84   92 1   
    92   85   89 1   
    93   93   94 1   
    94   93  101 1   
    95   94   95 1   
    96   94   97 1   
    97   94  102 1   
    98   95   96 2   
    99   95  112 1   
   100   97   98 1   
   101   97   99 1   
   102   97  103 1   
   103   98  100 1   
   104   98  104 1   
   105   98  105 1   
   106   99  106 1   
   107   99  107 1   
   108   99  108 1   
   109  100  109 1   
   110  100  110 1   
   111  100  111 1   
   112  112  113 1   
   113  112  119 1   
   114  113  114 1   
   115  113  116 1   
   116  113  120 1   
   117  114  115 2   
   118  114  126 1   
   119  116  117 1   
   120  116  118 1   
   121  116  121 1   
   122  117  123 1   
   123  117  124 1   
   124  117  125 1   
   125  118  122 1   
   126  126  127 1   
   127  126  133 1   
   128  127  128 1   
   129  127  130 1   
   130  127  134 1   
   131  128  129 2   
   132  128  140 1   
   133  130  131 1   
   134  130  132 1   
   135  130  135 1   
   136  131  137 1   
   137  131  138 1   
   138  131  139 1   
   139  132  136 1   
   140  140  141 1   
   141  140  149 1   
   142  141  142 1   
   143  141  144 1   
   144  141  150 1   
   145  142  143 2   
   146  142  162 1   
   147  144  145 1   
   148  144  151 1   
   149  144  152 1   
   150  145  146 1   
   151  145  153 1   
   152  145  154 1   
   153  146  147 1   
   154  146  155 1   
   155  146  156 1   
   156  147  148 1   
   157  147  157 1   
   158  147  158 1   
   159  148  159 1   
   160  148  160 1   
   161  148  161 1   
   162  162  163 1   
   163  162  171 1   
   164  163  164 1   
   165  163  166 1   
   166  163  172 1   
   167  164  165 2   
   168  164  177 1   
   169  166  167 1   
   170  166  173 1   
   171  166  174 1   
   172  167  168 1   
   173  167  175 1   
   174  167  176 1   
   175  168  169 1   
   176  168  170 1   
   177  177  178 1   
   178  177  182 1   
   179  178  179 1   
   180  178  180 1   
   181  178  181 1   
   182  184  185 1   
   183  184  186 1   
   184  187  188 1   
   185  187  189 1   
@<TRIPOS>SUBSTRUCTURE
     1 MOL         1 TEMP              0 ****  ****    0 ROOT
