@<TRIPOS>MOLECULE
MOL
  189   185     1     0     0
SMALL
resp


@<TRIPOS>ATOM
      1 C1          0.8540   -4.5500    5.4420 c3        1 MOL     -0.412217
      2 C2          1.3110   -3.7930    4.1650 c         1 MOL      0.788094
      3 O1          1.3100   -2.5860    4.0620 o         1 MOL     -0.627018
      4 H1          1.0210   -5.6190    5.3100 hc        1 MOL      0.104433
      5 H2          1.4270   -4.1960    6.2990 hc        1 MOL      0.104433
      6 H3         -0.2070   -4.3670    5.6120 hc        1 MOL      0.104433
      7 N1          1.7670   -4.5790    3.1530 n         1 MOL     -0.594437
      8 C3          2.5560   -4.0480    2.0070 c3        1 MOL      0.183325
      9 C4          2.4440   -5.0610    0.8380 c         1 MOL      0.604528
     10 O2          2.8250   -6.2400    1.0020 o         1 MOL     -0.588762
     11 C5          3.9910   -3.7570    2.4910 c3        1 MOL     -0.337282
     12 C6          4.6990   -3.1300    1.2540 c         1 MOL      0.700365
     13 O3          5.7680   -3.7470    1.0070 o         1 MOL     -0.641446
     14 O4          4.2020   -2.2340    0.5580 o         1 MOL     -0.641446
     15 H4          1.7360   -5.5830    3.2860 hn        1 MOL      0.302479
     16 H5          2.1350   -3.0920    1.6990 h1        1 MOL      0.005660
     17 H6          4.3840   -4.6870    2.8920 hc        1 MOL      0.067127
     18 H7          3.8330   -3.0080    3.2690 hc        1 MOL      0.067127
     19 N2          1.9450   -4.6130   -0.3080 n         1 MOL     -0.411515
     20 C7          1.9830   -5.3470   -1.6060 c3        1 MOL      0.002803
     21 C8          2.8040   -4.7310   -2.7550 c         1 MOL      0.490306
     22 O5          2.6510   -5.1330   -3.8850 o         1 MOL     -0.573678
     23 C9          0.5270   -5.8010   -1.9940 c3        1 MOL      0.164351
     24 C10        -0.4680   -4.6450   -2.3170 c3        1 MOL     -0.046525
     25 C11        -0.1220   -6.8080   -1.0220 c3        1 MOL     -0.076837
     26 C12        -1.8450   -5.0810   -2.9550 c3        1 MOL     -0.225401
     27 H8          1.5260   -3.6970   -0.2920 hn        1 MOL      0.223329
     28 H9          2.4400   -6.3370   -1.5030 h1        1 MOL      0.066145
     29 H10         0.6810   -6.4320   -2.8730 hc        1 MOL     -0.025137
     30 H11        -0.0500   -3.8530   -2.9510 hc        1 MOL      0.059549
     31 H12        -0.6060   -4.1510   -1.3610 hc        1 MOL      0.059549
     32 H13         0.4890   -7.6600   -0.7420 hc        1 MOL      0.004664
     33 H14        -0.4180   -6.3790   -0.0620 hc        1 MOL      0.004664
     34 H15        -0.9770   -7.2150   -1.5610 hc        1 MOL      0.004664
     35 H16        -2.4440   -4.1880   -3.1480 hc        1 MOL      0.057476
     36 H17        -1.6670   -5.6400   -3.8670 hc        1 MOL      0.057476
     37 H18        -2.4120   -5.6820   -2.2500 hc        1 MOL      0.057476
     38 N3          3.5590   -3.6710   -2.4930 n         1 MOL     -0.396231
     39 C13         4.2520   -3.0070   -3.5950 c3        1 MOL      0.032872
     40 C14         5.5270   -2.3390   -3.1470 c         1 MOL      0.332308
     41 O6          6.2730   -1.9980   -4.0800 o         1 MOL     -0.552722
     42 C15         3.2610   -1.9310   -4.2240 c3        1 MOL     -0.132525
     43 C16         2.7310   -0.8170   -3.2610 c         1 MOL      0.649620
     44 O7          3.2750   -0.5680   -2.1520 o         1 MOL     -0.678652
     45 O8          1.7260   -0.1830   -3.6750 o         1 MOL     -0.678652
     46 H19         3.4710   -3.3180   -1.5460 hn        1 MOL      0.309079
     47 H20         4.5330   -3.7570   -4.3370 h1        1 MOL      0.115925
     48 H21         2.4820   -2.4870   -4.7540 hc        1 MOL      0.047221
     49 H22         3.8930   -1.5230   -5.0170 hc        1 MOL      0.047221
     50 N4          5.8820   -2.1920   -1.8540 n         1 MOL     -0.020928
     51 C17         7.1190   -1.7870   -1.2260 c3        1 MOL     -0.206103
     52 C18         7.3650   -0.2670   -1.3310 c         1 MOL      0.534996
     53 O9          8.4990    0.1920   -1.3550 o         1 MOL     -0.614688
     54 H23         5.1890   -2.5200   -1.2060 hn        1 MOL      0.010903
     55 H24         7.9430   -2.2890   -1.7380 h1        1 MOL      0.097056
     56 H25         7.0510   -2.0490   -0.1750 h1        1 MOL      0.097056
     57 N5          6.3140    0.5850   -1.5020 n         1 MOL     -0.286162
     58 C19         6.3990    2.0330   -1.9470 c3        1 MOL     -0.044193
     59 C20         6.6390    3.0520   -0.7540 c         1 MOL      0.475334
     60 O10         6.8880    4.2410   -1.0220 o         1 MOL     -0.559922
     61 C21         5.1770    2.4170   -2.8070 c3        1 MOL     -0.290282
     62 C22         3.8360    2.3850   -2.0240 c         1 MOL      0.830236
     63 O11         3.9100    1.8540   -0.8500 o         1 MOL     -0.689874
     64 O12         2.7510    2.9340   -2.4970 o         1 MOL     -0.689874
     65 H26         5.3660    0.2680   -1.4100 hn        1 MOL      0.306593
     66 H27         7.2730    2.1690   -2.5860 h1        1 MOL      0.122145
     67 H28         5.1760    1.7040   -3.6350 hc        1 MOL      0.076252
     68 H29         5.2900    3.4420   -3.1580 hc        1 MOL      0.076252
     69 N6          6.6380    2.5710    0.4780 n         1 MOL     -0.280787
     70 C23         6.7490    3.4120    1.7380 c3        1 MOL     -0.273765
     71 C24         5.4610    4.1650    2.0770 c         1 MOL      0.534178
     72 O13         5.5960    5.2010    2.6580 o         1 MOL     -0.588117
     73 H30         6.3950    1.6010    0.6230 hn        1 MOL      0.225792
     74 H31         7.5360    4.1480    1.5900 h1        1 MOL      0.128185
     75 H32         6.8480    2.7840    2.6260 h1        1 MOL      0.128185
     76 N7          4.3220    3.8190    1.5290 n         1 MOL     -0.222783
     77 C25         3.0060    4.4270    1.6230 c3        1 MOL     -0.106584
     78 C26         1.9140    3.3430    1.8120 c         1 MOL      0.223109
     79 O14         2.0850    2.2710    1.3100 o         1 MOL     -0.332598
     80 C27         2.7690    5.2580    0.3250 c3        1 MOL      0.087328
     81 C28         3.8220    6.4260    0.2250 c3        1 MOL     -0.422972
     82 C29         3.3940    7.4290   -0.8800 c         1 MOL      0.719247
     83 N8          4.3510    7.9510   -1.6240 n         1 MOL     -0.820091
     84 O15         2.2530    7.7810   -1.0670 o         1 MOL     -0.562210
     85 H33         4.3130    3.0040    0.9420 hn        1 MOL      0.204297
     86 H34         3.0990    5.0460    2.5130 h1        1 MOL      0.079825
     87 H35         1.8130    5.7730    0.2000 hc        1 MOL      0.042951
     88 H36         2.9400    4.6010   -0.5340 hc        1 MOL      0.042951
     89 H37         4.7800    5.9720   -0.0410 hc        1 MOL      0.138309
     90 H38         3.9200    6.9520    1.1690 hc        1 MOL      0.138309
     91 H39         5.2710    7.5890   -1.4480 hn        1 MOL      0.357362
     92 H40         4.1920    8.6130   -2.3750 hn        1 MOL      0.357362
     93 N9          0.7840    3.7040    2.3670 n         1 MOL     -0.207295
     94 C30        -0.3990    2.8060    2.5350 c3        1 MOL     -0.043561
     95 C31        -1.5340    3.0910    1.5490 c         1 MOL      0.487290
     96 O16        -2.1120    4.2300    1.5220 o         1 MOL     -0.580358
     97 C32        -0.9510    2.9560    3.9900 c3        1 MOL      0.358003
     98 C33        -1.9880    1.9110    4.2320 c3        1 MOL     -0.221922
     99 C34         0.1560    2.9220    5.0480 c3        1 MOL     -0.221922
    100 H41         0.7200    4.6040    2.8150 hn        1 MOL      0.223412
    101 H42        -0.0450    1.7930    2.3510 h1        1 MOL      0.082992
    102 H43        -1.3530    3.9600    4.0620 hc        1 MOL     -0.065795
    103 H44        -2.6850    1.9410    3.3940 hc        1 MOL      0.029317
    104 H45        -1.4680    0.9570    4.2350 hc        1 MOL      0.029317
    105 H46        -2.5260    2.1800    5.1390 hc        1 MOL      0.029317
    106 H47         0.6550    3.8840    5.1140 hc        1 MOL      0.029317
    107 H48        -0.2360    2.7640    6.0530 hc        1 MOL      0.029317
    108 H49         0.9970    2.2580    4.8810 hc        1 MOL      0.029317
    109 N10        -1.7560    2.1750    0.5760 n         1 MOL     -0.405451
    110 C35        -2.9160    2.1360   -0.3090 c3        1 MOL      0.119876
    111 C36        -4.1910    1.5710    0.3700 c         1 MOL      0.255499
    112 O17        -4.0720    0.9360    1.4110 o         1 MOL     -0.233376
    113 C37        -2.5760    1.1830   -1.4420 c3        1 MOL     -0.202901
    114 C38        -3.6580    1.2310   -2.4880 c         1 MOL      0.538325
    115 N11        -4.1290    2.4060   -2.9200 n         1 MOL     -0.637225
    116 O18        -4.2060    0.2070   -2.8110 o         1 MOL     -0.468172
    117 H50        -1.1500    1.3670    0.6250 hn        1 MOL      0.328918
    118 H51        -3.1460    3.1740   -0.5650 h1        1 MOL      0.081595
    119 H52        -2.4590    0.1510   -1.0940 hc        1 MOL      0.112400
    120 H53        -1.6660    1.5460   -1.9170 hc        1 MOL      0.112400
    121 H54        -3.5950    3.2380   -2.6800 hn        1 MOL      0.302655
    122 H55        -4.7500    2.4120   -3.7060 hn        1 MOL      0.302655
    123 N12        -5.4110    1.9610   -0.1450 n         1 MOL     -0.285992
    124 C39        -6.6810    1.2150    0.2110 c3        1 MOL     -0.043092
    125 C40        -6.5150   -0.2710    0.5790 c         1 MOL      0.554199
    126 O19        -6.9320   -0.7140    1.6550 o         1 MOL     -0.567092
    127 C41        -7.5680    1.2310   -1.0190 c3        1 MOL     -0.091396
    128 C42        -8.1320    2.5900   -1.4290 ca        1 MOL      0.179534
    129 C43        -9.3690    2.9670   -0.9820 ca        1 MOL     -0.179774
    130 C44        -7.3700    3.3050   -2.4350 ca        1 MOL     -0.179774
    131 C45        -9.9110    4.1620   -1.4850 ca        1 MOL     -0.296987
    132 C46        -7.9700    4.4970   -2.8960 ca        1 MOL     -0.296987
    133 C47        -9.2190    4.9480   -2.4270 ca        1 MOL      0.352731
    134 O20        -9.7510    6.0110   -2.9810 oh        1 MOL     -0.487499
    135 H56        -5.4740    2.5640   -0.9580 hn        1 MOL      0.137187
    136 H57        -7.2180    1.7290    1.0080 h1        1 MOL      0.064785
    137 H58        -8.4220    0.5560   -0.9410 hc        1 MOL      0.041449
    138 H59        -7.0890    0.7740   -1.8830 hc        1 MOL      0.041449
    139 H60        -9.9680    2.3890   -0.2880 ha        1 MOL      0.166190
    140 H61        -6.4230    2.9950   -2.8620 ha        1 MOL      0.166190
    141 H62       -10.8690    4.5300   -1.1360 ha        1 MOL      0.137187
    142 H63        -7.5170    5.0760   -3.6930 ha        1 MOL      0.137187
    143 H64        -9.1650    6.3570   -3.6550 ho        1 MOL      0.355438
    144 N13        -5.9480   -1.0460   -0.3500 n         1 MOL     -0.251656
    145 C48        -5.7620   -2.5090   -0.2130 c3        1 MOL     -0.253076
    146 C49        -4.8990   -2.9460    0.9840 c         1 MOL      0.465530
    147 O21        -5.0300   -4.1100    1.3750 o         1 MOL     -0.531386
    148 C50        -5.2560   -3.1400   -1.5120 c3        1 MOL     -0.055674
    149 C51        -6.2850   -2.9530   -2.6430 c3        1 MOL     -0.108495
    150 C52        -7.7400   -3.2160   -2.3320 c         1 MOL      0.689479
    151 O22        -8.6560   -2.4480   -2.7700 o         1 MOL     -0.729605
    152 O23        -8.0650   -4.2500   -1.6760 o         1 MOL     -0.729605
    153 H65        -5.6020   -0.6160   -1.1960 hn        1 MOL      0.236755
    154 H66        -6.7510   -2.9010    0.0020 h1        1 MOL      0.205500
    155 H67        -5.2010   -4.2200   -1.3550 hc        1 MOL      0.063726
    156 H68        -4.2930   -2.7000   -1.7650 hc        1 MOL      0.063726
    157 H69        -6.0390   -3.5450   -3.5230 hc        1 MOL     -0.008299
    158 H70        -6.0830   -1.9400   -2.9740 hc        1 MOL     -0.008299
    159 N14        -4.1570   -2.0140    1.5880 n         1 MOL     -0.148334
    160 C53        -3.2810   -2.2990    2.6680 c3        1 MOL     -0.016369
    161 C54        -3.8800   -1.7920    3.9780 c         1 MOL      0.401503
    162 O24        -3.6980   -2.4710    4.9680 o         1 MOL     -0.552129
    163 C55        -1.9080   -1.6250    2.5490 c3        1 MOL      0.057208
    164 C56        -1.0440   -2.4020    1.4710 c3        1 MOL     -0.104647
    165 C57        -0.0040   -1.5310    0.8090 c         1 MOL      0.949595
    166 O25         0.8930   -2.0410    0.1470 o         1 MOL     -0.838538
    167 O26        -0.0700   -0.2770    0.9120 o         1 MOL     -0.838538
    168 H71        -4.2140   -1.0340    1.3480 hn        1 MOL      0.075050
    169 H72        -3.0830   -3.3700    2.6850 h1        1 MOL      0.061093
    170 H73        -1.3530   -1.6700    3.4780 hc        1 MOL      0.015307
    171 H74        -2.1540   -0.6160    2.2010 hc        1 MOL      0.015307
    172 H75        -1.6860   -2.7200    0.6510 hc        1 MOL     -0.006179
    173 H76        -0.5730   -3.2240    2.0080 hc        1 MOL     -0.006179
    174 N15        -4.6490   -0.6490    3.9650 n         1 MOL      0.001613
    175 C58        -5.3270   -0.0780    5.0550 c3        1 MOL     -0.237438
    176 H77        -5.7070    0.9030    4.7720 h1        1 MOL      0.074540
    177 H78        -6.1590   -0.7200    5.3440 h1        1 MOL      0.074540
    178 H79        -4.6400    0.0290    5.8950 h1        1 MOL      0.074540
    179 H80        -4.6670   -0.1510    3.0910 hn        1 MOL      0.077499
    180 Ca1         2.6220   -0.1780    0.3460 Ca        1 MOL      1.676424
    181 O27         2.4040   -0.4670    2.9220 oh        1 MOL     -0.909875
    182 H81         2.0300   -1.2630    3.2830 ho        1 MOL      0.429293
    183 H82         2.9140   -0.0980    3.6510 ho        1 MOL      0.429293
    184 O28         0.9770    1.3690   -1.5500 oh        1 MOL     -0.909875
    185 H83         1.6900    2.0070   -1.6800 ho        1 MOL      0.429293
    186 H84         1.0190    0.8090   -2.3330 ho        1 MOL      0.429293
    187 O29         5.0490    0.2320    1.7150 oh        1 MOL     -0.909875
    188 H85         5.8280   -0.3160    1.6440 ho        1 MOL      0.429293
    189 H86         5.0640    0.5570    2.6160 ho        1 MOL      0.429293
@<TRIPOS>BOND
     1    1    2 1   
     2    1    4 1   
     3    1    5 1   
     4    1    6 1   
     5    2    3 2   
     6    2    7 1   
     7    7    8 1   
     8    7   15 1   
     9    8    9 1   
    10    8   11 1   
    11    8   16 1   
    12    9   10 2   
    13    9   19 1   
    14   11   12 1   
    15   11   17 1   
    16   11   18 1   
    17   12   13 1   
    18   12   14 1   
    19   19   20 1   
    20   19   27 1   
    21   20   21 1   
    22   20   23 1   
    23   20   28 1   
    24   21   22 2   
    25   21   38 1   
    26   23   24 1   
    27   23   25 1   
    28   23   29 1   
    29   24   26 1   
    30   24   30 1   
    31   24   31 1   
    32   25   32 1   
    33   25   33 1   
    34   25   34 1   
    35   26   35 1   
    36   26   36 1   
    37   26   37 1   
    38   38   39 1   
    39   38   46 1   
    40   39   40 1   
    41   39   42 1   
    42   39   47 1   
    43   40   41 2   
    44   40   50 1   
    45   42   43 1   
    46   42   48 1   
    47   42   49 1   
    48   43   44 1   
    49   43   45 1   
    50   50   51 1   
    51   50   54 1   
    52   51   52 1   
    53   51   55 1   
    54   51   56 1   
    55   52   53 2   
    56   52   57 1   
    57   57   58 1   
    58   57   65 1   
    59   58   59 1   
    60   58   61 1   
    61   58   66 1   
    62   59   60 2   
    63   59   69 1   
    64   61   62 1   
    65   61   67 1   
    66   61   68 1   
    67   62   63 1   
    68   62   64 1   
    69   69   70 1   
    70   69   73 1   
    71   70   71 1   
    72   70   74 1   
    73   70   75 1   
    74   71   72 2   
    75   71   76 1   
    76   76   77 1   
    77   76   85 1   
    78   77   78 1   
    79   77   80 1   
    80   77   86 1   
    81   78   79 2   
    82   78   93 1   
    83   80   81 1   
    84   80   87 1   
    85   80   88 1   
    86   81   82 1   
    87   81   89 1   
    88   81   90 1   
    89   82   83 1   
    90   82   84 2   
    91   83   91 1   
    92   83   92 1   
    93   93   94 1   
    94   93  100 1   
    95   94   95 1   
    96   94   97 1   
    97   94  101 1   
    98   95   96 2   
    99   95  109 1   
   100   97   98 1   
   101   97   99 1   
   102   97  102 1   
   103   98  103 1   
   104   98  104 1   
   105   98  105 1   
   106   99  106 1   
   107   99  107 1   
   108   99  108 1   
   109  109  110 1   
   110  109  117 1   
   111  110  111 1   
   112  110  113 1   
   113  110  118 1   
   114  111  112 2   
   115  111  123 1   
   116  113  114 1   
   117  113  119 1   
   118  113  120 1   
   119  114  115 1   
   120  114  116 2   
   121  115  121 1   
   122  115  122 1   
   123  123  124 1   
   124  123  135 1   
   125  124  125 1   
   126  124  127 1   
   127  124  136 1   
   128  125  126 2   
   129  125  144 1   
   130  127  128 1   
   131  127  137 1   
   132  127  138 1   
   133  128  129 ar  
   134  128  130 ar  
   135  129  131 ar  
   136  129  139 1   
   137  130  132 ar  
   138  130  140 1   
   139  131  133 ar  
   140  131  141 1   
   141  132  133 ar  
   142  132  142 1   
   143  133  134 1   
   144  134  143 1   
   145  144  145 1   
   146  144  153 1   
   147  145  146 1   
   148  145  148 1   
   149  145  154 1   
   150  146  147 2   
   151  146  159 1   
   152  148  149 1   
   153  148  155 1   
   154  148  156 1   
   155  149  150 1   
   156  149  157 1   
   157  149  158 1   
   158  150  151 1   
   159  150  152 1   
   160  159  160 1   
   161  159  168 1   
   162  160  161 1   
   163  160  163 1   
   164  160  169 1   
   165  161  162 2   
   166  161  174 1   
   167  163  164 1   
   168  163  170 1   
   169  163  171 1   
   170  164  165 1   
   171  164  172 1   
   172  164  173 1   
   173  165  166 1   
   174  165  167 1   
   175  174  175 1   
   176  174  179 1   
   177  175  176 1   
   178  175  177 1   
   179  175  178 1   
   180  181  182 1   
   181  181  183 1   
   182  184  185 1   
   183  184  186 1   
   184  187  188 1   
   185  187  189 1   
@<TRIPOS>SUBSTRUCTURE
     1 MOL         1 TEMP              0 ****  ****    0 ROOT
