@<TRIPOS>MOLECULE
MOL
  182   178     1     0     0
SMALL
resp


@<TRIPOS>ATOM
      1 C1         -1.3170   -3.2060    5.8810 c3        1 MOL     -0.333811
      2 C2         -0.9960   -2.6770    4.5090 c         1 MOL      0.727349
      3 O1         -1.8570   -2.5460    3.6010 o         1 MOL     -0.623880
      4 H1         -0.4050   -3.2460    6.4760 hc        1 MOL      0.088017
      5 H2         -2.0380   -2.5480    6.3650 hc        1 MOL      0.088017
      6 H3         -1.7380   -4.2080    5.7960 hc        1 MOL      0.088017
      7 N1          0.2920   -2.5130    4.2030 n         1 MOL     -0.535255
      8 C3          0.9280   -2.2110    2.8790 c3        1 MOL      0.028024
      9 C4          1.0720   -3.4800    2.0410 c         1 MOL      0.608443
     10 O2          1.7460   -4.4120    2.3850 o         1 MOL     -0.547879
     11 C5          2.3170   -1.5130    2.9700 c3        1 MOL     -0.051169
     12 C6          2.8710   -1.1490    1.6920 c         1 MOL      0.614558
     13 O3          2.3530   -1.3810    0.5970 o         1 MOL     -0.618407
     14 O4          3.9000   -0.4990    1.7840 o         1 MOL     -0.618407
     15 H4          0.9490   -2.6740    4.9420 hn        1 MOL      0.305455
     16 H5          0.2670   -1.5140    2.3520 h1        1 MOL      0.010247
     17 H6          3.0530   -2.1780    3.4270 hc        1 MOL      0.021814
     18 H7          2.1400   -0.6530    3.6180 hc        1 MOL      0.021814
     19 N2          0.2060   -3.6430    1.0440 n         1 MOL     -0.185188
     20 C7         -0.0910   -4.8560    0.3540 c3        1 MOL     -0.175411
     21 C8          1.0260   -5.4840   -0.5030 c         1 MOL      0.565934
     22 O5          0.9180   -6.5520   -0.9810 o         1 MOL     -0.546090
     23 C9         -1.4150   -4.5560   -0.4480 c3        1 MOL     -0.022635
     24 C10        -2.4260   -5.7510   -0.4640 c3        1 MOL      0.117649
     25 C11        -3.6830   -5.4150   -1.3670 c3        1 MOL     -0.186564
     26 C12        -4.5670   -6.6600   -1.3380 c3        1 MOL      0.041993
     27 N3         -5.7450   -6.4700   -2.2280 n4        1 MOL     -0.225882
     28 H8         -0.3800   -2.8730    0.7360 hn        1 MOL      0.201270
     29 H9         -0.3520   -5.5660    1.1370 h1        1 MOL      0.086498
     30 H10        -1.1960   -4.1860   -1.4490 hc        1 MOL      0.043433
     31 H11        -1.9730   -3.8030    0.1210 hc        1 MOL      0.043433
     32 H12        -2.8530   -6.0450    0.4880 hc        1 MOL      0.010987
     33 H13        -1.9160   -6.6550   -0.8010 hc        1 MOL      0.010987
     34 H14        -3.4320   -5.2160   -2.4030 hc        1 MOL      0.069296
     35 H15        -4.1990   -4.6450   -0.7900 hc        1 MOL      0.069296
     36 H16        -4.8970   -6.8810   -0.3230 hx        1 MOL      0.081327
     37 H17        -3.9400   -7.4430   -1.7520 hx        1 MOL      0.081327
     38 H18        -6.2380   -7.3240   -2.4500 hn        1 MOL      0.291156
     39 H19        -6.3140   -5.7680   -1.7870 hn        1 MOL      0.291156
     40 H20        -5.5910   -6.0220   -3.1160 hn        1 MOL      0.291156
     41 N4          2.0980   -4.6730   -0.7710 n         1 MOL     -0.207424
     42 C13         3.3990   -5.1560   -1.3270 c3        1 MOL      0.150671
     43 C14         4.6170   -4.9230   -0.4520 c         1 MOL      0.257612
     44 O6          5.7560   -5.4140   -0.6670 o         1 MOL     -0.488579
     45 C15         3.5390   -4.7530   -2.8010 c3        1 MOL     -0.366102
     46 C16         2.8340   -3.3800   -3.1240 c         1 MOL      0.740768
     47 O7          2.8750   -2.3970   -2.3380 o         1 MOL     -0.711643
     48 O8          2.0620   -3.2140   -4.1030 o         1 MOL     -0.711643
     49 H21         2.0770   -3.8130   -0.2430 hn        1 MOL     -0.020693
     50 H22         3.3780   -6.2430   -1.4250 h1        1 MOL      0.090645
     51 H23         3.2430   -5.5000   -3.5380 hc        1 MOL      0.108620
     52 H24         4.6050   -4.5530   -2.9400 hc        1 MOL      0.108620
     53 N5          4.4040   -4.0730    0.5270 n         1 MOL      0.126290
     54 C17         5.4250   -3.5580    1.4210 c3        1 MOL     -0.299072
     55 C18         6.3670   -2.5710    0.8030 c         1 MOL      0.505167
     56 O9          7.6010   -2.7450    0.8960 o         1 MOL     -0.548608
     57 H25         3.4830   -3.6910    0.6410 hn        1 MOL     -0.067133
     58 H26         6.1170   -4.3600    1.6560 h1        1 MOL      0.131984
     59 H27         5.0450   -3.0270    2.2920 h1        1 MOL      0.131984
     60 N6          5.8020   -1.6270    0.0390 n         1 MOL     -0.090347
     61 C19         6.5060   -0.6570   -0.6760 c3        1 MOL     -0.069735
     62 C20         6.7100    0.7170    0.0650 c         1 MOL      0.255935
     63 O10         7.4680    1.5470   -0.4130 o         1 MOL     -0.481338
     64 C21         5.8250   -0.4950   -2.0680 c3        1 MOL     -0.008947
     65 C22         4.7460    0.6220   -2.1430 c         1 MOL      0.372838
     66 N7          4.8730    1.6360   -2.9660 n         1 MOL     -0.520888
     67 O11         3.7470    0.6240   -1.4990 o         1 MOL     -0.418920
     68 H28         4.7970   -1.5840    0.1380 hn        1 MOL      0.087286
     69 H29         7.4840   -1.1010   -0.8140 h1        1 MOL      0.127562
     70 H30         5.2840   -1.3920   -2.3620 hc        1 MOL      0.039476
     71 H31         6.6290   -0.2920   -2.7810 hc        1 MOL      0.039476
     72 H32         5.6130    1.6190   -3.6620 hn        1 MOL      0.282542
     73 H33         4.0590    2.2030   -3.1600 hn        1 MOL      0.282542
     74 N8          6.0500    1.0600    1.1540 n         1 MOL      0.002964
     75 C23         6.1400    2.2360    1.9210 c3        1 MOL     -0.298064
     76 C24         4.9710    3.2040    1.7940 c         1 MOL      0.721480
     77 O12         5.0830    4.3080    2.3450 o         1 MOL     -0.574005
     78 H34         5.3180    0.4110    1.4020 hn        1 MOL      0.091431
     79 H35         7.0520    2.8310    1.7960 h1        1 MOL      0.116730
     80 H36         5.9750    1.9340    2.9460 h1        1 MOL      0.116730
     81 N9          3.9380    2.7980    1.0260 n         1 MOL     -0.697552
     82 C25         2.7280    3.5700    0.6880 c3        1 MOL      0.329565
     83 C26         1.4300    2.6870    0.7680 c         1 MOL      0.328268
     84 O13         1.3330    1.5380    0.4210 o         1 MOL     -0.615414
     85 C27         3.0160    4.1390   -0.7590 c3        1 MOL     -0.038755
     86 C28         4.1160    5.1600   -0.8260 ca        1 MOL     -0.100036
     87 C29         5.3860    4.6740   -1.1980 ca        1 MOL     -0.083961
     88 C30         3.8280    6.5590   -0.6230 ca        1 MOL     -0.083961
     89 C31         6.4190    5.6600   -1.3510 ca        1 MOL     -0.272087
     90 C32         4.9140    7.4870   -0.6210 ca        1 MOL     -0.272087
     91 C33         6.2140    7.0030   -0.9530 ca        1 MOL      0.336851
     92 O14         7.2790    7.8060   -0.7370 oh        1 MOL     -0.469137
     93 H37         3.9830    1.8790    0.6130 hn        1 MOL      0.529001
     94 H38         2.6990    4.4520    1.3210 h1        1 MOL      0.016887
     95 H39         2.0960    4.4320   -1.2520 hc        1 MOL      0.025345
     96 H40         3.3040    3.1820   -1.1980 hc        1 MOL      0.025345
     97 H41         5.5140    3.6270   -1.4000 ha        1 MOL      0.101537
     98 H42         2.7980    6.8340   -0.4890 ha        1 MOL      0.101537
     99 H43         7.3960    5.3170   -1.6590 ha        1 MOL      0.147401
    100 H44         4.7310    8.5320   -0.4380 ha        1 MOL      0.147401
    101 H45         7.0030    8.6340   -0.3350 ho        1 MOL      0.360001
    102 N10         0.3220    3.3300    1.1940 n         1 MOL     -0.535110
    103 C34        -1.0250    2.7200    1.3960 c3        1 MOL      0.016789
    104 C35        -2.0750    3.5650    0.6840 c         1 MOL      0.647207
    105 O15        -2.1020    4.7700    0.9260 o         1 MOL     -0.551460
    106 C36        -1.2380    2.5420    2.8810 c3        1 MOL     -0.011660
    107 C37        -0.1540    1.5750    3.5260 c3        1 MOL      0.234338
    108 C38        -2.6200    1.9650    3.1780 c3        1 MOL     -0.157262
    109 C39        -0.3250    0.9840    4.8900 c3        1 MOL     -0.208073
    110 H46         0.5060    4.2740    1.4780 hn        1 MOL      0.312323
    111 H47        -1.0210    1.7720    0.8540 h1        1 MOL      0.104857
    112 H48        -1.1090    3.4540    3.4490 hc        1 MOL      0.032672
    113 H49         0.8450    2.0080    3.5500 hc        1 MOL     -0.010648
    114 H50        -0.0410    0.7460    2.8210 hc        1 MOL     -0.010648
    115 H51        -3.3530    2.5710    2.6560 hc        1 MOL      0.030614
    116 H52        -2.6950    0.9300    2.8330 hc        1 MOL      0.030614
    117 H53        -2.7580    1.9920    4.2570 hc        1 MOL      0.030614
    118 H54        -0.4800    1.6880    5.7030 hc        1 MOL      0.039035
    119 H55        -1.1070    0.2260    4.9230 hc        1 MOL      0.039035
    120 H56         0.6100    0.4680    5.1210 hc        1 MOL      0.039035
    121 N11        -2.9030    2.9930   -0.2550 n         1 MOL     -0.457229
    122 C40        -4.0010    3.7600   -0.9380 c3        1 MOL      0.042929
    123 C41        -5.2780    3.6880   -0.1400 c         1 MOL      0.492257
    124 O16        -5.3040    2.9990    0.8820 o         1 MOL     -0.397545
    125 C42        -4.1160    3.2230   -2.3290 c3        1 MOL     -0.131334
    126 O17        -4.6910    1.9170   -2.2910 oh        1 MOL     -0.378666
    127 H57        -2.7800    1.9990   -0.4090 hn        1 MOL      0.279555
    128 H58        -3.7640    4.8210   -1.0610 h1        1 MOL      0.085228
    129 H59        -3.1220    3.1120   -2.7680 h1        1 MOL      0.092785
    130 H60        -4.6360    3.8920   -3.0130 h1        1 MOL      0.092785
    131 H61        -4.4510    1.5580   -3.1490 ho        1 MOL      0.371449
    132 N12        -6.3610    4.3020   -0.6140 n         1 MOL     -0.498868
    133 C43        -7.6850    4.1710   -0.0250 c3        1 MOL      0.189124
    134 C44        -8.2670    2.7970   -0.3390 c         1 MOL      0.396190
    135 O18        -8.9100    2.1230    0.4840 o         1 MOL     -0.498103
    136 C45        -8.6540    5.3050   -0.5410 c3        1 MOL     -0.292968
    137 H62        -6.3100    4.8130   -1.4870 hn        1 MOL      0.306650
    138 H63        -7.6090    4.2370    1.0630 h1        1 MOL      0.082066
    139 H64        -9.6730    5.0580   -0.2260 hc        1 MOL      0.092720
    140 H65        -8.4160    6.2880   -0.1530 hc        1 MOL      0.092720
    141 H66        -8.5100    5.2320   -1.6150 hc        1 MOL      0.092720
    142 N13        -7.9370    2.1760   -1.5130 n         1 MOL     -0.338876
    143 C46        -8.2590    0.8540   -1.9150 c3        1 MOL      0.145299
    144 C47        -7.4460   -0.3170   -1.2150 c         1 MOL      0.384571
    145 O19        -8.0900   -1.3070   -0.9830 o         1 MOL     -0.507481
    146 C48        -7.8160    0.7470   -3.3700 c3        1 MOL     -0.322541
    147 H67        -7.2880    2.6300   -2.1440 hn        1 MOL      0.229971
    148 H68        -9.3240    0.6600   -1.8350 h1        1 MOL      0.099622
    149 H69        -7.8330   -0.3090   -3.6370 hc        1 MOL      0.077690
    150 H70        -8.5050    1.2870   -4.0260 hc        1 MOL      0.077690
    151 H71        -6.8830    1.2700   -3.5620 hc        1 MOL      0.077690
    152 N14        -6.1510   -0.2300   -0.8740 n         1 MOL     -0.174741
    153 C49        -5.3570   -1.0890    0.0720 c3        1 MOL     -0.040052
    154 C50        -5.9280   -1.0280    1.4580 c         1 MOL      0.454634
    155 O20        -6.2280   -2.1000    2.0080 o         1 MOL     -0.538322
    156 C51        -3.8850   -0.6620    0.2190 c3        1 MOL      0.025159
    157 C52        -3.1710   -1.1330   -1.0740 c3        1 MOL      0.296955
    158 C53        -1.7050   -0.6720   -0.9040 c         1 MOL      0.665271
    159 O21        -1.3140    0.3590   -1.4640 o         1 MOL     -0.774774
    160 O22        -0.8510   -1.3540   -0.2130 o         1 MOL     -0.774774
    161 H72        -5.6140    0.5530   -1.2130 hn        1 MOL      0.025098
    162 H73        -5.4230   -2.1220   -0.2610 h1        1 MOL      0.057056
    163 H74        -3.4140   -1.1290    1.0770 hc        1 MOL      0.054710
    164 H75        -3.7600    0.4230    0.2400 hc        1 MOL      0.054710
    165 H76        -3.6140   -0.7600   -1.9910 hc        1 MOL     -0.129615
    166 H77        -3.1830   -2.2180   -1.1620 hc        1 MOL     -0.129615
    167 N15        -6.2310    0.1870    1.9830 n         1 MOL     -0.091937
    168 C54        -6.7170    0.3790    3.3720 c3        1 MOL     -0.362802
    169 H78        -5.9340    0.0920    4.0740 h1        1 MOL      0.139323
    170 H79        -6.9760    1.4260    3.5260 h1        1 MOL      0.139323
    171 H80        -7.5980   -0.2420    3.5390 h1        1 MOL      0.139323
    172 H81        -5.8190    0.9550    1.4810 hn        1 MOL      0.127303
    173 Ca1         1.3020   -0.4440   -1.4050 Ca        1 MOL      1.832690
    174 O23         1.8910    0.2360   -3.9760 oh        1 MOL     -0.858665
    175 H82         2.2760   -0.0780   -4.7960 ho        1 MOL      0.413377
    176 H83         1.9990    1.1790   -4.0030 ho        1 MOL      0.413377
    177 O24        -0.1080   -1.8920   -3.1970 oh        1 MOL     -0.858665
    178 H84         0.5960   -2.3790   -3.6100 ho        1 MOL      0.413377
    179 H85        -0.9070   -2.2050   -3.6300 ho        1 MOL      0.413377
    180 O25         0.5590    2.3290   -2.3760 oh        1 MOL     -0.858665
    181 H86         0.3480    3.1940   -2.7360 ho        1 MOL      0.413377
    182 H87        -0.2320    2.0520   -1.9270 ho        1 MOL      0.413377
@<TRIPOS>BOND
     1    1    2 1   
     2    1    4 1   
     3    1    5 1   
     4    1    6 1   
     5    2    3 2   
     6    2    7 1   
     7    7    8 1   
     8    7   15 1   
     9    8    9 1   
    10    8   11 1   
    11    8   16 1   
    12    9   10 2   
    13    9   19 1   
    14   11   12 1   
    15   11   17 1   
    16   11   18 1   
    17   12   13 1   
    18   12   14 1   
    19   19   20 1   
    20   19   28 1   
    21   20   21 1   
    22   20   23 1   
    23   20   29 1   
    24   21   22 2   
    25   21   41 1   
    26   23   24 1   
    27   23   30 1   
    28   23   31 1   
    29   24   25 1   
    30   24   32 1   
    31   24   33 1   
    32   25   26 1   
    33   25   34 1   
    34   25   35 1   
    35   26   27 1   
    36   26   36 1   
    37   26   37 1   
    38   27   38 1   
    39   27   39 1   
    40   27   40 1   
    41   41   42 1   
    42   41   49 1   
    43   42   43 1   
    44   42   45 1   
    45   42   50 1   
    46   43   44 2   
    47   43   53 1   
    48   45   46 1   
    49   45   51 1   
    50   45   52 1   
    51   46   47 1   
    52   46   48 1   
    53   53   54 1   
    54   53   57 1   
    55   54   55 1   
    56   54   58 1   
    57   54   59 1   
    58   55   56 2   
    59   55   60 1   
    60   60   61 1   
    61   60   68 1   
    62   61   62 1   
    63   61   64 1   
    64   61   69 1   
    65   62   63 2   
    66   62   74 1   
    67   64   65 1   
    68   64   70 1   
    69   64   71 1   
    70   65   66 1   
    71   65   67 2   
    72   66   72 1   
    73   66   73 1   
    74   74   75 1   
    75   74   78 1   
    76   75   76 1   
    77   75   79 1   
    78   75   80 1   
    79   76   77 2   
    80   76   81 1   
    81   81   82 1   
    82   81   93 1   
    83   82   83 1   
    84   82   85 1   
    85   82   94 1   
    86   83   84 2   
    87   83  102 1   
    88   85   86 1   
    89   85   95 1   
    90   85   96 1   
    91   86   87 ar  
    92   86   88 ar  
    93   87   89 ar  
    94   87   97 1   
    95   88   90 ar  
    96   88   98 1   
    97   89   91 ar  
    98   89   99 1   
    99   90   91 ar  
   100   90  100 1   
   101   91   92 1   
   102   92  101 1   
   103  102  103 1   
   104  102  110 1   
   105  103  104 1   
   106  103  106 1   
   107  103  111 1   
   108  104  105 2   
   109  104  121 1   
   110  106  107 1   
   111  106  108 1   
   112  106  112 1   
   113  107  109 1   
   114  107  113 1   
   115  107  114 1   
   116  108  115 1   
   117  108  116 1   
   118  108  117 1   
   119  109  118 1   
   120  109  119 1   
   121  109  120 1   
   122  121  122 1   
   123  121  127 1   
   124  122  123 1   
   125  122  125 1   
   126  122  128 1   
   127  123  124 2   
   128  123  132 1   
   129  125  126 1   
   130  125  129 1   
   131  125  130 1   
   132  126  131 1   
   133  132  133 1   
   134  132  137 1   
   135  133  134 1   
   136  133  136 1   
   137  133  138 1   
   138  134  135 2   
   139  134  142 1   
   140  136  139 1   
   141  136  140 1   
   142  136  141 1   
   143  142  143 1   
   144  142  147 1   
   145  143  144 1   
   146  143  146 1   
   147  143  148 1   
   148  144  145 2   
   149  144  152 1   
   150  146  149 1   
   151  146  150 1   
   152  146  151 1   
   153  152  153 1   
   154  152  161 1   
   155  153  154 1   
   156  153  156 1   
   157  153  162 1   
   158  154  155 2   
   159  154  167 1   
   160  156  157 1   
   161  156  163 1   
   162  156  164 1   
   163  157  158 1   
   164  157  165 1   
   165  157  166 1   
   166  158  159 1   
   167  158  160 1   
   168  167  168 1   
   169  167  172 1   
   170  168  169 1   
   171  168  170 1   
   172  168  171 1   
   173  174  175 1   
   174  174  176 1   
   175  177  178 1   
   176  177  179 1   
   177  180  181 1   
   178  180  182 1   
@<TRIPOS>SUBSTRUCTURE
     1 MOL         1 TEMP              0 ****  ****    0 ROOT
