@<TRIPOS>MOLECULE
MOL
  175   173     1     0     0
SMALL
resp


@<TRIPOS>ATOM
      1 C1          0.3810    3.8670    5.4180 c3        1 MOL     -0.325154
      2 C2         -0.1790    3.6130    4.0830 c         1 MOL      0.664682
      3 O1          0.5190    3.8980    3.0980 o         1 MOL     -0.547468
      4 H1         -0.2120    3.3410    6.1660 hc        1 MOL      0.080786
      5 H2          1.4100    3.5110    5.4550 hc        1 MOL      0.080786
      6 H3          0.3580    4.9370    5.6250 hc        1 MOL      0.080786
      7 N1         -1.4440    3.3260    3.9200 n         1 MOL     -0.591291
      8 C3         -2.1570    3.2480    2.7030 c3        1 MOL      0.198213
      9 C4         -2.0550    4.5640    1.8750 c         1 MOL      0.767681
     10 O2         -2.2370    5.6240    2.4530 o         1 MOL     -0.606831
     11 C5         -3.5630    2.7470    2.8660 c3        1 MOL     -0.455862
     12 C6         -4.2880    2.4200    1.5200 c         1 MOL      0.664431
     13 O3         -5.5390    2.4400    1.4570 o         1 MOL     -0.618636
     14 O4         -3.6140    1.9010    0.5710 o         1 MOL     -0.618636
     15 H4         -2.0100    3.2820    4.7650 hn        1 MOL      0.312030
     16 H5         -1.5840    2.5170    2.1290 h1        1 MOL     -0.021628
     17 H6         -4.1890    3.4590    3.4040 hc        1 MOL      0.109880
     18 H7         -3.5020    1.8020    3.4060 hc        1 MOL      0.109880
     19 N2         -1.9450    4.3610    0.5620 n         1 MOL     -0.689655
     20 C7         -2.1380    5.4230   -0.3880 c3        1 MOL      0.394621
     21 C8         -3.2750    5.1460   -1.4680 c         1 MOL      0.389236
     22 O5         -3.6010    6.0680   -2.2040 o         1 MOL     -0.580031
     23 C9         -0.8540    5.6800   -1.0310 c3        1 MOL     -0.082068
     24 H8         -1.7920    3.4330    0.1750 hn        1 MOL      0.324440
     25 H9         -2.4260    6.3490    0.1070 h1        1 MOL     -0.027025
     26 H10        -0.8310    6.4060   -1.8460 hc        1 MOL      0.006408
     27 H11        -0.2560    6.0960   -0.2210 hc        1 MOL      0.006408
     28 H12        -0.4470    4.7150   -1.3300 hc        1 MOL      0.006408
     29 N3         -3.8400    3.9370   -1.5400 n         1 MOL     -0.284017
     30 C10        -4.6550    3.5380   -2.6820 c3        1 MOL      0.235437
     31 C11        -5.9560    2.8430   -2.3680 c         1 MOL      0.344888
     32 O6         -6.7340    2.8070   -3.3030 o         1 MOL     -0.571645
     33 C12        -3.8160    2.5640   -3.5910 c3        1 MOL     -0.350626
     34 C13        -3.3160    1.4420   -2.7660 c         1 MOL      0.844099
     35 O7         -4.0590    0.7570   -2.0230 o         1 MOL     -0.765836
     36 O8         -2.0830    1.2080   -2.7680 o         1 MOL     -0.765836
     37 H13        -3.6270    3.3160   -0.7770 hn        1 MOL      0.138664
     38 H14        -4.9410    4.3380   -3.3550 h1        1 MOL      0.057826
     39 H15        -2.9610    3.1440   -3.9300 hc        1 MOL      0.087122
     40 H16        -4.4710    2.1710   -4.3680 hc        1 MOL      0.087122
     41 N4         -6.2560    2.3720   -1.2120 n         1 MOL     -0.213083
     42 C14        -7.4450    1.5290   -0.9790 c3        1 MOL     -0.024817
     43 C15        -7.4410    0.0520   -1.3950 c         1 MOL      0.490989
     44 O9         -8.5070   -0.5460   -1.3590 o         1 MOL     -0.632878
     45 H17        -5.5100    2.3370   -0.5410 hn        1 MOL      0.130281
     46 H18        -8.3660    1.9660   -1.3720 h1        1 MOL      0.066771
     47 H19        -7.6320    1.5120    0.0870 h1        1 MOL      0.066771
     48 N5         -6.3200   -0.5340   -1.7670 n         1 MOL     -0.186535
     49 C16        -6.1920   -1.9540   -2.1450 c3        1 MOL     -0.012522
     50 C17        -6.1480   -3.0280   -1.0290 c         1 MOL      0.497490
     51 O10        -5.8420   -4.1900   -1.2670 o         1 MOL     -0.519601
     52 C18        -5.1040   -1.9930   -3.2280 c3        1 MOL     -0.315035
     53 C19        -3.6910   -2.0510   -2.6840 c         1 MOL      0.696215
     54 N6         -2.6990   -2.4110   -3.4950 n         1 MOL     -0.645716
     55 O11        -3.3790   -1.8890   -1.5270 o         1 MOL     -0.624314
     56 H20        -5.4690    0.0000   -1.7290 hn        1 MOL      0.211019
     57 H21        -7.1850   -2.2070   -2.5120 h1        1 MOL      0.095358
     58 H22        -5.3190   -1.1410   -3.8660 hc        1 MOL      0.101007
     59 H23        -5.2330   -2.8400   -3.8970 hc        1 MOL      0.101007
     60 H24        -2.8240   -2.5810   -4.4800 hn        1 MOL      0.307322
     61 H25        -1.7780   -2.1150   -3.1870 hn        1 MOL      0.307322
     62 N7         -6.4800   -2.5920    0.2100 n         1 MOL     -0.345274
     63 C20        -6.4480   -3.4510    1.3700 c3        1 MOL     -0.250435
     64 C21        -5.0880   -4.0350    1.7860 c         1 MOL      0.426734
     65 O12        -5.1140   -4.7550    2.7580 o         1 MOL     -0.561772
     66 H26        -6.7430   -1.6370    0.3780 hn        1 MOL      0.290529
     67 H27        -7.0800   -4.3190    1.1540 h1        1 MOL      0.135552
     68 H28        -6.9420   -2.8700    2.1560 h1        1 MOL      0.135552
     69 N8         -3.9620   -3.8640    1.0750 n         1 MOL      0.017315
     70 C22        -2.6200   -4.4310    1.3640 c3        1 MOL     -0.184878
     71 C23        -1.4710   -3.4300    1.3640 c         1 MOL      0.307009
     72 O13        -1.5290   -2.3540    0.8150 o         1 MOL     -0.306127
     73 C24        -2.3410   -5.5600    0.3460 c3        1 MOL      0.658188
     74 C25        -3.3200   -6.6970    0.5280 c3        1 MOL     -0.457203
     75 O14        -2.4380   -5.0060   -0.9280 oh        1 MOL     -0.613364
     76 H29        -4.0170   -3.2510    0.2780 hn        1 MOL      0.146804
     77 H30        -2.6650   -4.8350    2.3680 h1        1 MOL      0.064025
     78 H31        -1.3320   -5.9480    0.4770 h1        1 MOL     -0.096943
     79 H32        -2.2430   -4.0700   -0.8030 ho        1 MOL      0.321746
     80 H33        -3.0280   -7.5640   -0.0720 hc        1 MOL      0.098679
     81 H34        -3.2920   -6.9040    1.5930 hc        1 MOL      0.098679
     82 H35        -4.3170   -6.3430    0.2750 hc        1 MOL      0.098679
     83 N9         -0.3850   -3.7660    2.0910 n         1 MOL     -0.350699
     84 C26         0.7690   -2.8290    2.1250 c3        1 MOL     -0.082199
     85 C27         1.6720   -3.0920    0.8560 c         1 MOL      0.489203
     86 O15         2.2010   -4.2100    0.5320 o         1 MOL     -0.608893
     87 C28         1.5400   -2.9550    3.3870 c3        1 MOL      0.109306
     88 C29         0.6110   -2.8070    4.5790 c3        1 MOL      0.002144
     89 C30         2.6560   -1.9040    3.4230 c3        1 MOL     -0.178468
     90 C31         1.2670   -2.6190    5.9770 c3        1 MOL     -0.092061
     91 H36        -0.3880   -4.6960    2.4790 hn        1 MOL      0.259030
     92 H37         0.2840   -1.8520    2.0830 h1        1 MOL      0.153075
     93 H38         2.0330   -3.9240    3.3760 hc        1 MOL      0.010701
     94 H39         0.0050   -3.7140    4.6040 hc        1 MOL      0.000434
     95 H40        -0.1520   -2.0310    4.5290 hc        1 MOL      0.000434
     96 H41         2.2250   -0.9070    3.4510 hc        1 MOL      0.047725
     97 H42         3.2760   -2.1210    4.2910 hc        1 MOL      0.047725
     98 H43         3.5050   -2.0860    2.7580 hc        1 MOL      0.047725
     99 H44         1.9450   -1.7690    6.0690 hc        1 MOL      0.010846
    100 H45         0.4990   -2.5570    6.7540 hc        1 MOL      0.010846
    101 H46         1.8320   -3.5070    6.2500 hc        1 MOL      0.010846
    102 N10         1.7860   -2.0700    0.0240 n         1 MOL     -0.050094
    103 C32         2.5760   -2.0820   -1.2170 c3        1 MOL      0.103699
    104 C33         3.9860   -1.4730   -0.9360 c         1 MOL      0.195088
    105 O16         4.1840   -0.7270    0.0240 o         1 MOL     -0.202063
    106 C34         1.8500   -1.3300   -2.2700 c3        1 MOL     -0.334719
    107 C35         0.4170   -1.6910   -2.6050 c         1 MOL      0.772788
    108 O17        -0.4790   -1.3100   -1.8010 o         1 MOL     -0.664006
    109 O18         0.2040   -2.2440   -3.6890 o         1 MOL     -0.664006
    110 H47         1.1920   -1.2920    0.2870 hn        1 MOL     -0.156738
    111 H48         2.6840   -3.1370   -1.4720 h1        1 MOL      0.084682
    112 H49         2.3840   -1.5910   -3.1900 hc        1 MOL      0.071574
    113 H50         1.9200   -0.2490   -2.1440 hc        1 MOL      0.071574
    114 N11         4.9830   -1.8750   -1.6890 n         1 MOL     -0.449614
    115 C36         6.4470   -1.5940   -1.2920 c3        1 MOL      0.208497
    116 C37         6.7930   -0.1610   -0.8830 c         1 MOL      0.489445
    117 O19         7.5060   -0.0670    0.1480 o         1 MOL     -0.543358
    118 C38         7.3160   -2.2640   -2.3980 c3        1 MOL     -0.125338
    119 C39         8.7760   -1.8310   -2.3260 ca        1 MOL      0.150288
    120 C40         9.6140   -2.5350   -1.4900 ca        1 MOL     -0.271845
    121 C41         9.2540   -0.6620   -2.9530 ca        1 MOL     -0.271845
    122 C42        10.9220   -2.0210   -1.2930 ca        1 MOL      0.012532
    123 C43        10.6000   -0.2910   -2.8440 ca        1 MOL      0.012532
    124 C44        11.4490   -0.9780   -2.0370 ca        1 MOL     -0.219350
    125 H51         4.8070   -2.5800   -2.3920 hn        1 MOL      0.305566
    126 H52         6.6400   -2.1700   -0.3830 h1        1 MOL      0.054399
    127 H53         6.9080   -1.9620   -3.3680 hc        1 MOL      0.034934
    128 H54         7.2030   -3.3480   -2.3870 hc        1 MOL      0.034934
    129 H55         9.2740   -3.3900   -0.9280 ha        1 MOL      0.142787
    130 H56         8.6500   -0.0350   -3.5790 ha        1 MOL      0.142787
    131 H57        11.4920   -2.6040   -0.5840 ha        1 MOL      0.078522
    132 H58        10.9550    0.5820   -3.3660 ha        1 MOL      0.078522
    133 H59        12.4630   -0.6680   -1.8350 ha        1 MOL      0.121740
    134 N12         6.3560    0.8950   -1.5720 n         1 MOL      0.012719
    135 C45         6.7600    2.2330   -1.1830 c3        1 MOL     -0.051935
    136 C46         6.0510    2.7350    0.0980 c         1 MOL      0.301672
    137 O20         6.5740    3.5040    0.9140 o         1 MOL     -0.494092
    138 C47         6.4200    3.1310   -2.3520 c3        1 MOL     -0.058676
    139 C48         5.7000    2.3110   -3.4490 c3        1 MOL     -0.016064
    140 C49         5.4370    1.0010   -2.7300 c3        1 MOL     -0.147205
    141 H60         7.8430    2.2530   -1.0570 h1        1 MOL      0.073924
    142 H61         5.7270    3.9070   -2.0180 hc        1 MOL      0.042638
    143 H62         7.2950    3.5850   -2.8130 hc        1 MOL      0.042638
    144 H63         4.8100    2.8780   -3.7530 hc        1 MOL      0.033179
    145 H64         6.3890    2.1720   -4.2760 hc        1 MOL      0.033179
    146 H65         4.4360    0.9830   -2.3010 h1        1 MOL      0.072610
    147 H66         5.4750    0.2070   -3.4870 h1        1 MOL      0.072610
    148 N13         4.8580    2.1510    0.3980 n         1 MOL      0.021354
    149 C50         4.0670    2.3010    1.6430 c3        1 MOL     -0.276500
    150 C51         4.7900    1.5920    2.7830 c         1 MOL      0.551751
    151 O21         4.9130    2.1170    3.8610 o         1 MOL     -0.559451
    152 C52         2.7160    1.5670    1.4930 c3        1 MOL      0.085842
    153 C53         1.9820    1.9190    0.1790 c3        1 MOL     -0.242978
    154 C54         0.5930    1.3710    0.2550 c         1 MOL      0.690109
    155 O22         0.2860    0.2120    0.7250 o         1 MOL     -0.623004
    156 O23        -0.3970    1.9240   -0.2510 o         1 MOL     -0.623004
    157 H67         4.5560    1.4320   -0.2380 hn        1 MOL      0.022215
    158 H68         3.9260    3.3490    1.8890 h1        1 MOL      0.153808
    159 H69         2.1220    1.8060    2.3820 hc        1 MOL      0.002767
    160 H70         2.7410    0.4780    1.4930 hc        1 MOL      0.002767
    161 H71         2.4880    1.5650   -0.7200 hc        1 MOL      0.097187
    162 H72         1.8400    3.0040    0.1170 hc        1 MOL      0.097187
    163 N14         5.3310    0.3450    2.5810 n         1 MOL     -0.044331
    164 C55         6.1950   -0.4550    3.4690 c3        1 MOL     -0.243034
    165 H73         5.8000   -0.4240    4.4840 h1        1 MOL      0.088724
    166 H74         6.2180   -1.4880    3.1200 h1        1 MOL      0.088724
    167 H75         7.2050   -0.0460    3.4600 h1        1 MOL      0.088724
    168 H76         5.1670   -0.0090    1.6420 hn        1 MOL      0.007969
    169 Ca1        -2.0710    0.0140   -0.3160 Ca        1 MOL      1.707845
    170 O24        -1.5230    0.0850    2.7070 oh        1 MOL     -0.894510
    171 H77        -1.3490    0.4630    3.5690 ho        1 MOL      0.426347
    172 H78        -0.6610   -0.0440    2.3240 ho        1 MOL      0.426347
    173 O25        -4.0010   -0.8950    1.7000 oh        1 MOL     -0.894510
    174 H79        -3.5360   -0.5890    2.4800 ho        1 MOL      0.426347
    175 H80        -4.9200   -0.6910    1.8780 ho        1 MOL      0.426347
@<TRIPOS>BOND
     1    1    2 1   
     2    1    4 1   
     3    1    5 1   
     4    1    6 1   
     5    2    3 2   
     6    2    7 1   
     7    7    8 1   
     8    7   15 1   
     9    8    9 1   
    10    8   11 1   
    11    8   16 1   
    12    9   10 2   
    13    9   19 1   
    14   11   12 1   
    15   11   17 1   
    16   11   18 1   
    17   12   13 1   
    18   12   14 1   
    19   19   20 1   
    20   19   24 1   
    21   20   21 1   
    22   20   23 1   
    23   20   25 1   
    24   21   22 2   
    25   21   29 1   
    26   23   26 1   
    27   23   27 1   
    28   23   28 1   
    29   29   30 1   
    30   29   37 1   
    31   30   31 1   
    32   30   33 1   
    33   30   38 1   
    34   31   32 2   
    35   31   41 1   
    36   33   34 1   
    37   33   39 1   
    38   33   40 1   
    39   34   35 1   
    40   34   36 1   
    41   41   42 1   
    42   41   45 1   
    43   42   43 1   
    44   42   46 1   
    45   42   47 1   
    46   43   44 2   
    47   43   48 1   
    48   48   49 1   
    49   48   56 1   
    50   49   50 1   
    51   49   52 1   
    52   49   57 1   
    53   50   51 2   
    54   50   62 1   
    55   52   53 1   
    56   52   58 1   
    57   52   59 1   
    58   53   54 1   
    59   53   55 2   
    60   54   60 1   
    61   54   61 1   
    62   62   63 1   
    63   62   66 1   
    64   63   64 1   
    65   63   67 1   
    66   63   68 1   
    67   64   65 2   
    68   64   69 1   
    69   69   70 1   
    70   69   76 1   
    71   70   71 1   
    72   70   73 1   
    73   70   77 1   
    74   71   72 2   
    75   71   83 1   
    76   73   74 1   
    77   73   75 1   
    78   73   78 1   
    79   74   80 1   
    80   74   81 1   
    81   74   82 1   
    82   75   79 1   
    83   83   84 1   
    84   83   91 1   
    85   84   85 1   
    86   84   87 1   
    87   84   92 1   
    88   85   86 2   
    89   85  102 1   
    90   87   88 1   
    91   87   89 1   
    92   87   93 1   
    93   88   90 1   
    94   88   94 1   
    95   88   95 1   
    96   89   96 1   
    97   89   97 1   
    98   89   98 1   
    99   90   99 1   
   100   90  100 1   
   101   90  101 1   
   102  102  103 1   
   103  102  110 1   
   104  103  104 1   
   105  103  106 1   
   106  103  111 1   
   107  104  105 2   
   108  104  114 1   
   109  106  107 1   
   110  106  112 1   
   111  106  113 1   
   112  107  108 1   
   113  107  109 1   
   114  114  115 1   
   115  114  125 1   
   116  115  116 1   
   117  115  118 1   
   118  115  126 1   
   119  116  117 2   
   120  116  134 1   
   121  118  119 1   
   122  118  127 1   
   123  118  128 1   
   124  119  120 ar  
   125  119  121 ar  
   126  120  122 ar  
   127  120  129 1   
   128  121  123 ar  
   129  121  130 1   
   130  122  124 ar  
   131  122  131 1   
   132  123  124 ar  
   133  123  132 1   
   134  124  133 1   
   135  134  135 1   
   136  134  140 1   
   137  135  136 1   
   138  135  138 1   
   139  135  141 1   
   140  136  137 2   
   141  136  148 1   
   142  138  139 1   
   143  138  142 1   
   144  138  143 1   
   145  139  140 1   
   146  139  144 1   
   147  139  145 1   
   148  140  146 1   
   149  140  147 1   
   150  148  149 1   
   151  148  157 1   
   152  149  150 1   
   153  149  152 1   
   154  149  158 1   
   155  150  151 2   
   156  150  163 1   
   157  152  153 1   
   158  152  159 1   
   159  152  160 1   
   160  153  154 1   
   161  153  161 1   
   162  153  162 1   
   163  154  155 1   
   164  154  156 1   
   165  163  164 1   
   166  163  168 1   
   167  164  165 1   
   168  164  166 1   
   169  164  167 1   
   170  170  171 1   
   171  170  172 1   
   172  173  174 1   
   173  173  175 1   
@<TRIPOS>SUBSTRUCTURE
     1 MOL         1 TEMP              0 ****  ****    0 ROOT
