@<TRIPOS>MOLECULE
MOL
  179   176     1     0     0
SMALL
resp


@<TRIPOS>ATOM
      1 C1          2.4860    3.6820    3.7420 c3        1 MOL     -0.404777
      2 C2          1.5350    3.3130    2.5990 c         1 MOL      0.637233
      3 O1          1.8300    3.4190    1.4130 o         1 MOL     -0.569641
      4 H1          1.9250    4.1790    4.5340 hc        1 MOL      0.106964
      5 H2          2.9480    2.7770    4.1380 hc        1 MOL      0.106964
      6 H3          3.2590    4.3530    3.3690 hc        1 MOL      0.106964
      7 N1          0.2720    3.1280    2.9400 n         1 MOL     -0.576183
      8 C3         -0.8050    2.8380    1.9760 c3        1 MOL      0.006115
      9 C4         -1.4090    4.1470    1.4710 c         1 MOL      0.648627
     10 O2         -2.4820    4.5760    1.8390 o         1 MOL     -0.513684
     11 C5         -1.9000    1.8940    2.5600 c3        1 MOL      0.028833
     12 C6         -2.9070    1.2990    1.5340 c         1 MOL      0.361722
     13 O3         -4.1040    1.0990    1.9220 o         1 MOL     -0.573485
     14 O4         -2.5050    1.0730    0.3640 o         1 MOL     -0.573485
     15 H4         -0.0560    3.0890    3.8950 hn        1 MOL      0.338595
     16 H5         -0.3440    2.3670    1.1060 h1        1 MOL      0.095454
     17 H6         -2.4140    2.4330    3.3580 hc        1 MOL      0.007408
     18 H7         -1.4360    1.0430    3.0590 hc        1 MOL      0.007408
     19 N2         -0.6600    4.9240    0.6550 n         1 MOL     -0.557777
     20 C7         -0.9610    6.2840    0.1390 c3        1 MOL      0.043422
     21 C8         -2.0770    6.1650   -0.9120 c         1 MOL      0.336679
     22 O5         -2.9570    7.0380   -0.8960 o         1 MOL     -0.508160
     23 C9          0.2710    7.0020   -0.4500 c3        1 MOL     -0.003520
     24 C10         1.5110    7.0360    0.5280 c3        1 MOL     -0.129546
     25 C11         2.4470    8.2310    0.2090 c3        1 MOL      0.095052
     26 C12         3.3890    8.4990    1.3950 c3        1 MOL     -0.074936
     27 N3          4.5210    7.4610    1.3910 n4        1 MOL     -0.408268
     28 H8          0.2760    4.5530    0.4860 hn        1 MOL      0.341936
     29 H9         -1.3130    6.8680    0.9910 h1        1 MOL      0.094838
     30 H10        -0.1130    7.9830   -0.7330 hc        1 MOL      0.029227
     31 H11         0.5430    6.6090   -1.4390 hc        1 MOL      0.029227
     32 H12         2.0320    6.0770    0.5640 hc        1 MOL      0.052446
     33 H13         1.0880    7.2470    1.5120 hc        1 MOL      0.052446
     34 H14         1.9110    9.1630    0.0370 hc        1 MOL      0.027097
     35 H15         3.0740    8.0900   -0.6720 hc        1 MOL      0.027097
     36 H16         2.7550    8.4740    2.2810 hx        1 MOL      0.113829
     37 H17         3.8470    9.4820    1.3290 hx        1 MOL      0.113829
     38 H18         4.2220    6.5720    1.7800 hn        1 MOL      0.343417
     39 H19         5.0140    7.3450    0.5210 hn        1 MOL      0.343417
     40 H20         5.2840    7.7770    1.9730 hn        1 MOL      0.343417
     41 N4         -2.0560    5.1400   -1.7570 n         1 MOL     -0.175346
     42 C13        -3.1120    4.7450   -2.6700 c3        1 MOL     -0.008684
     43 C14        -4.3570    4.2120   -1.8870 c         1 MOL      0.438658
     44 O6         -5.5170    4.3860   -2.2650 o         1 MOL     -0.559459
     45 C15        -2.4920    3.6420   -3.5360 c3        1 MOL     -0.166367
     46 C16        -2.1470    2.3980   -2.7770 c         1 MOL      0.662971
     47 O7         -1.0380    2.3290   -2.1520 o         1 MOL     -0.707518
     48 O8         -2.9240    1.4210   -2.7580 o         1 MOL     -0.707518
     49 H21        -1.2370    4.5500   -1.7040 hn        1 MOL      0.194150
     50 H22        -3.3840    5.5400   -3.3630 h1        1 MOL      0.090791
     51 H23        -1.6150    4.1300   -3.9450 hc        1 MOL      0.048696
     52 H24        -3.1970    3.4180   -4.3480 hc        1 MOL      0.048696
     53 N5         -4.1530    3.8030   -0.6700 n         1 MOL     -0.009681
     54 C17        -5.2150    3.5720    0.3380 c3        1 MOL     -0.240610
     55 C18        -5.9900    2.3210    0.0670 c         1 MOL      0.680656
     56 O9         -7.1130    2.2500    0.4990 o         1 MOL     -0.593931
     57 H25        -3.2690    3.3820   -0.3960 hn        1 MOL      0.086226
     58 H26        -5.9880    4.3380    0.4160 h1        1 MOL      0.125868
     59 H27        -4.7400    3.5420    1.3140 h1        1 MOL      0.125868
     60 N6         -5.5310    1.3060   -0.7630 n         1 MOL     -0.378029
     61 C19        -6.3240    0.0960   -1.1480 c3        1 MOL     -0.066907
     62 C20        -6.5400   -0.9590   -0.1390 c         1 MOL      0.316184
     63 O10        -7.2950   -1.8900   -0.4880 o         1 MOL     -0.503088
     64 C21        -5.8930   -0.3490   -2.6000 c3        1 MOL     -0.043280
     65 C22        -4.7330   -1.3770   -2.5930 c         1 MOL      0.603172
     66 N7         -4.8000   -2.3760   -3.4270 n         1 MOL     -0.544736
     67 O11        -3.7990   -1.4080   -1.7810 o         1 MOL     -0.773930
     68 H28        -4.6020    1.4060   -1.1560 hn        1 MOL      0.189435
     69 H29        -7.2950    0.5390   -1.3690 h1        1 MOL      0.152909
     70 H30        -5.6340    0.4760   -3.2610 hc        1 MOL      0.048584
     71 H31        -6.7810   -0.7670   -3.0750 hc        1 MOL      0.048584
     72 H32        -5.4400   -2.3960   -4.2070 hn        1 MOL      0.291048
     73 H33        -3.9700   -2.9540   -3.4150 hn        1 MOL      0.291048
     74 N8         -6.0110   -0.8110    1.0740 n         1 MOL      0.046874
     75 C23        -6.1600   -1.8080    2.1650 c3        1 MOL     -0.441129
     76 C24        -4.9470   -2.7640    2.4210 c         1 MOL      0.809222
     77 O12        -5.0460   -3.5470    3.3460 o         1 MOL     -0.607916
     78 H34        -5.3070   -0.0880    1.1010 hn        1 MOL      0.104038
     79 H35        -6.9880   -2.5180    2.0330 h1        1 MOL      0.155788
     80 H36        -6.2970   -1.3760    3.1570 h1        1 MOL      0.155788
     81 N9         -3.8750   -2.5140    1.7200 n         1 MOL     -0.661855
     82 C25        -2.6880   -3.3220    1.5830 c3        1 MOL      0.196215
     83 C26        -1.3710   -2.5910    1.3740 c         1 MOL      0.615385
     84 O13        -1.2870   -1.5240    0.8040 o         1 MOL     -0.678181
     85 C27        -2.9090   -4.2880    0.3660 c3        1 MOL     -0.162861
     86 C28        -4.0290   -5.3150    0.4490 ca        1 MOL      0.070261
     87 C29        -3.6820   -6.6330    0.7180 ca        1 MOL     -0.170116
     88 C30        -5.3720   -4.9350    0.1790 ca        1 MOL     -0.170116
     89 C31        -4.6850   -7.6380    0.7140 ca        1 MOL     -0.250067
     90 C32        -6.3760   -5.9240    0.2560 ca        1 MOL     -0.250067
     91 C33        -6.0250   -7.2970    0.4810 ca        1 MOL      0.325798
     92 O14        -6.9590   -8.2550    0.2280 oh        1 MOL     -0.444863
     93 H37        -4.0040   -1.8790    0.9470 hn        1 MOL      0.560380
     94 H38        -2.4010   -3.7010    2.5680 h1        1 MOL      0.022118
     95 H39        -2.0820   -4.9820    0.2490 hc        1 MOL      0.054018
     96 H40        -3.0190   -3.8110   -0.6150 hc        1 MOL      0.054018
     97 H41        -2.6590   -6.9340    0.8580 ha        1 MOL      0.120092
     98 H42        -5.5690   -3.9200   -0.1320 ha        1 MOL      0.120092
     99 H43        -4.4280   -8.6920    0.7570 ha        1 MOL      0.141289
    100 H44        -7.3950   -5.6810   -0.0300 ha        1 MOL      0.141289
    101 H45        -6.5200   -9.1150    0.2200 ho        1 MOL      0.321694
    102 N10        -0.2030   -3.1070    1.8220 n         1 MOL     -0.540621
    103 C34         1.1740   -2.4590    1.7770 c3        1 MOL      0.037048
    104 C35         2.1950   -3.5270    1.3210 c         1 MOL      0.513537
    105 O15         2.0550   -4.6610    1.7690 o         1 MOL     -0.525743
    106 C36         1.5950   -1.8220    3.0880 c3        1 MOL      0.072064
    107 C37         0.6310   -0.6890    3.5640 c3        1 MOL      0.045699
    108 C38         3.0380   -1.1720    3.1730 c3        1 MOL     -0.306257
    109 C39         0.7510   -0.3220    5.0200 c3        1 MOL     -0.329274
    110 H46        -0.2640   -3.9880    2.3180 hn        1 MOL      0.301305
    111 H47         1.0800   -1.6000    1.1110 h1        1 MOL      0.017697
    112 H48         1.5290   -2.6970    3.7360 hc        1 MOL      0.010007
    113 H49        -0.3700   -1.0480    3.3270 hc        1 MOL      0.091854
    114 H50         0.7780    0.1890    2.9360 hc        1 MOL      0.091854
    115 H51         3.7400   -1.7500    2.5740 hc        1 MOL      0.070384
    116 H52         3.1210   -0.1880    2.6910 hc        1 MOL      0.070384
    117 H53         3.4150   -1.1360    4.1950 hc        1 MOL      0.070384
    118 H54         1.7990   -0.1370    5.2460 hc        1 MOL      0.077948
    119 H55         0.0790    0.5150    5.1790 hc        1 MOL      0.077948
    120 H56         0.4000   -1.1460    5.6400 hc        1 MOL      0.077948
    121 N11         3.0660   -3.1410    0.3550 n         1 MOL     -0.117390
    122 C40         3.9720   -4.0580   -0.1940 c3        1 MOL      0.013097
    123 C41         5.4590   -3.6040    0.0480 c         1 MOL      0.387522
    124 O16         5.7100   -2.5880    0.7170 o         1 MOL     -0.410646
    125 C42         3.6850   -4.3010   -1.7300 c3        1 MOL     -0.134381
    126 O17         3.6470   -3.1350   -2.4580 oh        1 MOL     -0.547207
    127 H57         3.1030   -2.1550    0.1200 hn        1 MOL      0.133182
    128 H58         3.8600   -5.0300    0.2760 h1        1 MOL      0.057834
    129 H59         2.6560   -4.6510   -1.7940 h1        1 MOL      0.086277
    130 H60         4.3980   -4.9900   -2.1770 h1        1 MOL      0.086277
    131 H61         3.1820   -3.3670   -3.2690 ho        1 MOL      0.410823
    132 N12         6.4150   -4.3970   -0.3120 n         1 MOL     -0.330975
    133 C43         7.8260   -4.1330   -0.1040 c3        1 MOL      0.092257
    134 C44         8.2370   -2.7550   -0.6450 c         1 MOL      0.485206
    135 O18         8.7600   -1.9390    0.0430 o         1 MOL     -0.492194
    136 C45         8.6970   -5.2830   -0.6370 c3        1 MOL     -0.276238
    137 H62         6.1420   -5.2250   -0.8320 hn        1 MOL      0.260773
    138 H63         8.0020   -4.0950    0.9700 h1        1 MOL      0.076547
    139 H64         9.7670   -5.1170   -0.4900 hc        1 MOL      0.086429
    140 H65         8.4480   -6.1680   -0.0500 hc        1 MOL      0.086429
    141 H66         8.4400   -5.4470   -1.6810 hc        1 MOL      0.086429
    142 N13         7.7880   -2.5490   -1.8820 n         1 MOL     -0.364231
    143 C46         7.9680   -1.2920   -2.5760 c3        1 MOL     -0.024883
    144 C47         7.3440   -0.0450   -1.9570 c         1 MOL      0.408746
    145 O19         7.8910    1.0640   -2.0470 o         1 MOL     -0.520666
    146 C48         7.3110   -1.4390   -3.9690 c3        1 MOL     -0.225408
    147 H67         7.2820   -3.2940   -2.3400 hn        1 MOL      0.278720
    148 H68         9.0220   -1.0420   -2.7120 h1        1 MOL      0.118749
    149 H69         7.6220   -2.3150   -4.5250 hc        1 MOL      0.072842
    150 H70         6.2300   -1.5440   -3.8970 hc        1 MOL      0.072842
    151 H71         7.4190   -0.6090   -4.6690 hc        1 MOL      0.072842
    152 N14         6.2380   -0.1730   -1.2060 n         1 MOL     -0.018243
    153 C49         5.5010    0.9110   -0.5810 c3        1 MOL     -0.313582
    154 C50         6.0520    1.1950    0.8110 c         1 MOL      0.569268
    155 O20         6.1400    2.3610    1.2680 o         1 MOL     -0.589927
    156 C51         3.9990    0.4990   -0.4520 c3        1 MOL      0.132470
    157 C52         3.2250    0.6780   -1.7840 c3        1 MOL     -0.093869
    158 C53         1.8320    0.0760   -1.6720 c         1 MOL      0.720935
    159 O21         1.0810    0.4980   -0.7330 o         1 MOL     -0.751017
    160 O22         1.3520   -0.6120   -2.5690 o         1 MOL     -0.751017
    161 H72         5.7980   -1.0760   -1.1780 hn        1 MOL      0.110139
    162 H73         5.5250    1.7530   -1.2730 h1        1 MOL      0.139884
    163 H74         3.4720    1.0200    0.3490 hc        1 MOL      0.039790
    164 H75         3.8960   -0.5450   -0.1550 hc        1 MOL      0.039790
    165 H76         3.6600    0.2290   -2.6700 hc        1 MOL      0.016087
    166 H77         3.2070    1.7710   -1.8680 hc        1 MOL      0.016087
    167 N15         6.3780    0.1120    1.5910 n         1 MOL     -0.152838
    168 C54         7.1470    0.3060    2.8250 c3        1 MOL     -0.360185
    169 H78         7.2150   -0.6400    3.3620 h1        1 MOL      0.132867
    170 H79         8.1490    0.6570    2.5780 h1        1 MOL      0.132867
    171 H80         6.6460    1.0440    3.4530 h1        1 MOL      0.132867
    172 H81         6.3530   -0.7680    1.1030 hn        1 MOL      0.155917
    173 Ca1        -1.3050   -0.2410   -1.6030 Ca        1 MOL      1.781992
    174 O23        -0.0710   -2.7360   -1.7500 oh        1 MOL     -0.818472
    175 H82         0.0790   -3.6410   -2.0160 ho        1 MOL      0.401260
    176 H83         0.6080   -2.2400   -2.2150 ho        1 MOL      0.401260
    177 O24        -1.7080   -1.2270   -4.1690 oh        1 MOL     -0.818472
    178 H84        -2.3750   -0.7780   -4.6870 ho        1 MOL      0.401260
    179 H85        -1.7500   -2.1460   -4.4610 ho        1 MOL      0.401260
@<TRIPOS>BOND
     1    1    2 1   
     2    1    4 1   
     3    1    5 1   
     4    1    6 1   
     5    2    3 2   
     6    2    7 1   
     7    7    8 1   
     8    7   15 1   
     9    8    9 1   
    10    8   11 1   
    11    8   16 1   
    12    9   10 2   
    13    9   19 1   
    14   11   12 1   
    15   11   17 1   
    16   11   18 1   
    17   12   13 1   
    18   12   14 1   
    19   19   20 1   
    20   19   28 1   
    21   20   21 1   
    22   20   23 1   
    23   20   29 1   
    24   21   22 2   
    25   21   41 1   
    26   23   24 1   
    27   23   30 1   
    28   23   31 1   
    29   24   25 1   
    30   24   32 1   
    31   24   33 1   
    32   25   26 1   
    33   25   34 1   
    34   25   35 1   
    35   26   27 1   
    36   26   36 1   
    37   26   37 1   
    38   27   38 1   
    39   27   39 1   
    40   27   40 1   
    41   41   42 1   
    42   41   49 1   
    43   42   43 1   
    44   42   45 1   
    45   42   50 1   
    46   43   44 2   
    47   43   53 1   
    48   45   46 1   
    49   45   51 1   
    50   45   52 1   
    51   46   47 1   
    52   46   48 1   
    53   53   54 1   
    54   53   57 1   
    55   54   55 1   
    56   54   58 1   
    57   54   59 1   
    58   55   56 2   
    59   55   60 1   
    60   60   61 1   
    61   60   68 1   
    62   61   62 1   
    63   61   64 1   
    64   61   69 1   
    65   62   63 2   
    66   62   74 1   
    67   64   65 1   
    68   64   70 1   
    69   64   71 1   
    70   65   66 1   
    71   65   67 2   
    72   66   72 1   
    73   66   73 1   
    74   74   75 1   
    75   74   78 1   
    76   75   76 1   
    77   75   79 1   
    78   75   80 1   
    79   76   77 2   
    80   76   81 1   
    81   81   82 1   
    82   81   93 1   
    83   82   83 1   
    84   82   85 1   
    85   82   94 1   
    86   83   84 2   
    87   83  102 1   
    88   85   86 1   
    89   85   95 1   
    90   85   96 1   
    91   86   87 ar  
    92   86   88 ar  
    93   87   89 ar  
    94   87   97 1   
    95   88   90 ar  
    96   88   98 1   
    97   89   91 ar  
    98   89   99 1   
    99   90   91 ar  
   100   90  100 1   
   101   91   92 1   
   102   92  101 1   
   103  102  103 1   
   104  102  110 1   
   105  103  104 1   
   106  103  106 1   
   107  103  111 1   
   108  104  105 2   
   109  104  121 1   
   110  106  107 1   
   111  106  108 1   
   112  106  112 1   
   113  107  109 1   
   114  107  113 1   
   115  107  114 1   
   116  108  115 1   
   117  108  116 1   
   118  108  117 1   
   119  109  118 1   
   120  109  119 1   
   121  109  120 1   
   122  121  122 1   
   123  121  127 1   
   124  122  123 1   
   125  122  125 1   
   126  122  128 1   
   127  123  124 2   
   128  123  132 1   
   129  125  126 1   
   130  125  129 1   
   131  125  130 1   
   132  126  131 1   
   133  132  133 1   
   134  132  137 1   
   135  133  134 1   
   136  133  136 1   
   137  133  138 1   
   138  134  135 2   
   139  134  142 1   
   140  136  139 1   
   141  136  140 1   
   142  136  141 1   
   143  142  143 1   
   144  142  147 1   
   145  143  144 1   
   146  143  146 1   
   147  143  148 1   
   148  144  145 2   
   149  144  152 1   
   150  146  149 1   
   151  146  150 1   
   152  146  151 1   
   153  152  153 1   
   154  152  161 1   
   155  153  154 1   
   156  153  156 1   
   157  153  162 1   
   158  154  155 2   
   159  154  167 1   
   160  156  157 1   
   161  156  163 1   
   162  156  164 1   
   163  157  158 1   
   164  157  165 1   
   165  157  166 1   
   166  158  159 1   
   167  158  160 1   
   168  167  168 1   
   169  167  172 1   
   170  168  169 1   
   171  168  170 1   
   172  168  171 1   
   173  174  175 1   
   174  174  176 1   
   175  177  178 1   
   176  177  179 1   
@<TRIPOS>SUBSTRUCTURE
     1 MOL         1 TEMP              0 ****  ****    0 ROOT
