@<TRIPOS>MOLECULE
MOL
  175   173     1     0     0
SMALL
resp


@<TRIPOS>ATOM
      1 C1         -0.6010   -3.7530    5.5750 c3        1 MOL     -0.316754
      2 C2         -0.0770   -3.6310    4.1130 c         1 MOL      0.679621
      3 O1         -0.7930   -3.7890    3.1110 o         1 MOL     -0.555492
      4 H1          0.2040   -4.1030    6.2200 hc        1 MOL      0.079194
      5 H2         -0.9460   -2.7790    5.9200 hc        1 MOL      0.079194
      6 H3         -1.4270   -4.4640    5.6070 hc        1 MOL      0.079194
      7 N1          1.2020   -3.4920    3.9170 n         1 MOL     -0.558726
      8 C3          1.8830   -3.3530    2.6560 c3        1 MOL      0.118722
      9 C4          1.9400   -4.6950    1.8160 c         1 MOL      0.599376
     10 O2          2.0870   -5.8510    2.2910 o         1 MOL     -0.603041
     11 C5          3.2200   -2.8590    2.9360 c3        1 MOL     -0.400805
     12 C6          4.0160   -2.6340    1.6970 c         1 MOL      0.681200
     13 O3          3.5140   -2.0390    0.6980 o         1 MOL     -0.643845
     14 O4          5.1610   -3.1760    1.6840 o         1 MOL     -0.643845
     15 H4          1.8250   -3.4430    4.7090 hn        1 MOL      0.309015
     16 H5          1.3810   -2.6410    2.0020 h1        1 MOL      0.044494
     17 H6          3.7240   -3.6470    3.5020 hc        1 MOL      0.078185
     18 H7          3.1510   -2.0470    3.6620 hc        1 MOL      0.078185
     19 N2          1.8320   -4.4600    0.5570 n         1 MOL     -0.292767
     20 C7          1.7620   -5.2970   -0.5830 c3        1 MOL      0.142041
     21 C8          2.5540   -4.8410   -1.8110 c         1 MOL      0.496714
     22 O5          2.3450   -5.4330   -2.9040 o         1 MOL     -0.571589
     23 C9          0.3190   -5.5750   -0.9360 c3        1 MOL     -0.150973
     24 H8          1.8730   -3.5060    0.2280 hn        1 MOL      0.247409
     25 H9          2.2370   -6.2550   -0.3480 h1        1 MOL      0.022691
     26 H10         0.1770   -6.3980   -1.6360 hc        1 MOL      0.035186
     27 H11        -0.2340   -5.8430   -0.0430 hc        1 MOL      0.035186
     28 H12        -0.1780   -4.6960   -1.3450 hc        1 MOL      0.035186
     29 N3          3.4320   -3.8600   -1.6510 n         1 MOL     -0.336099
     30 C10         4.2700   -3.4790   -2.7770 c3        1 MOL      0.200071
     31 C11         5.6400   -2.9510   -2.3200 c         1 MOL      0.362193
     32 O6          6.5800   -3.0950   -3.1200 o         1 MOL     -0.571178
     33 C12         3.5660   -2.5070   -3.7910 c3        1 MOL     -0.433734
     34 C13         3.0170   -1.3340   -2.9780 c         1 MOL      0.789390
     35 O7          1.8960   -0.9290   -3.2900 o         1 MOL     -0.650809
     36 O8          3.7060   -0.8650   -2.0060 o         1 MOL     -0.650809
     37 H13         3.6320   -3.4450   -0.7500 hn        1 MOL      0.095570
     38 H14         4.4770   -4.4440   -3.2440 h1        1 MOL      0.040434
     39 H15         2.6950   -3.0270   -4.1740 hc        1 MOL      0.111917
     40 H16         4.2980   -2.1630   -4.5190 hc        1 MOL      0.111917
     41 N4          5.8870   -2.3360   -1.1420 n         1 MOL     -0.091919
     42 C14         7.1420   -1.7880   -0.6720 c3        1 MOL     -0.370381
     43 C15         7.3590   -0.3000   -1.1430 c         1 MOL      0.544776
     44 O9          8.4500    0.2120   -0.9100 o         1 MOL     -0.611321
     45 H17         5.0560   -1.9350   -0.7490 hn        1 MOL      0.176101
     46 H18         7.9460   -2.4400   -1.0390 h1        1 MOL      0.158358
     47 H19         7.0390   -1.7950    0.4120 h1        1 MOL      0.158358
     48 N5          6.3660    0.3890   -1.7010 n         1 MOL     -0.195113
     49 C16         6.3930    1.7920   -2.1120 c3        1 MOL     -0.103389
     50 C17         6.4480    2.8490   -0.9190 c         1 MOL      0.442890
     51 O10         6.8860    3.9600   -1.1100 o         1 MOL     -0.554476
     52 C18         5.2410    2.1200   -3.0550 c3        1 MOL      0.019837
     53 C19         3.8550    2.1770   -2.3760 c         1 MOL      0.546319
     54 N6          2.7580    2.5140   -3.0520 n         1 MOL     -0.630352
     55 O11         3.7360    1.8000   -1.2140 o         1 MOL     -0.750036
     56 H20         5.5520   -0.2020   -1.7610 hn        1 MOL      0.174167
     57 H21         7.2580    1.8650   -2.7710 h1        1 MOL      0.108279
     58 H22         5.2110    1.2480   -3.7140 hc        1 MOL      0.021644
     59 H23         5.4820    2.9630   -3.6980 hc        1 MOL      0.021644
     60 H24         2.8080    2.9250   -3.9790 hn        1 MOL      0.314880
     61 H25         1.8280    2.2500   -2.7580 hn        1 MOL      0.314880
     62 N7          6.1240    2.4600    0.2570 n         1 MOL     -0.093081
     63 C20         6.2770    3.2190    1.5170 c3        1 MOL     -0.253394
     64 C21         5.0040    4.1930    1.6900 c         1 MOL      0.584461
     65 O12         5.0570    5.1270    2.4730 o         1 MOL     -0.586365
     66 H26         5.9530    1.4940    0.4940 hn        1 MOL      0.231198
     67 H27         7.2280    3.7570    1.5280 h1        1 MOL      0.098628
     68 H28         6.3470    2.5090    2.3390 h1        1 MOL      0.098628
     69 N8          3.9870    3.9740    0.9690 n         1 MOL     -0.379099
     70 C22         2.6860    4.6670    1.1120 c3        1 MOL     -0.142796
     71 C23         1.5700    3.5620    1.2560 c         1 MOL      0.702476
     72 O13         1.6500    2.4850    0.6170 o         1 MOL     -0.573795
     73 C24         2.3250    5.5830   -0.0850 c3        1 MOL      0.375337
     74 C25         3.0500    6.8550   -0.1000 c3        1 MOL     -0.560096
     75 O14         2.7680    4.9690   -1.2490 oh        1 MOL     -0.555133
     76 H29         4.0710    3.4790    0.0920 hn        1 MOL      0.378256
     77 H30         2.7010    5.2690    2.0260 h1        1 MOL      0.108341
     78 H31         1.2530    5.7690   -0.2110 h1        1 MOL      0.035582
     79 H32         2.3010    4.1400   -1.3120 ho        1 MOL      0.333254
     80 H33         2.6820    7.4760   -0.9260 hc        1 MOL      0.148393
     81 H34         2.9000    7.4030    0.8310 hc        1 MOL      0.148393
     82 H35         4.1310    6.7570   -0.2540 hc        1 MOL      0.148393
     83 N9          0.5210    3.8180    2.0590 n         1 MOL     -0.734866
     84 C26        -0.7040    2.9390    2.0890 c3        1 MOL      0.051664
     85 C27        -1.4400    3.1040    0.7990 c         1 MOL      0.456154
     86 O15        -1.6660    4.2500    0.4340 o         1 MOL     -0.573518
     87 C28        -1.6820    3.1170    3.3400 c3        1 MOL      0.333203
     88 C29        -0.9010    3.3260    4.6000 c3        1 MOL      0.068734
     89 C30        -2.7350    1.9810    3.4210 c3        1 MOL     -0.362191
     90 C31        -1.7110    3.6160    5.8370 c3        1 MOL     -0.149553
     91 H36         0.5180    4.7180    2.5100 hn        1 MOL      0.337740
     92 H37        -0.3730    1.9030    2.1780 h1        1 MOL      0.003946
     93 H38        -2.2960    3.9830    3.1420 hc        1 MOL     -0.056394
     94 H39        -0.2500    4.1710    4.3760 hc        1 MOL     -0.021131
     95 H40        -0.3050    2.4350    4.8200 hc        1 MOL     -0.021131
     96 H41        -3.3580    2.0370    4.3110 hc        1 MOL      0.067228
     97 H42        -3.3500    2.0300    2.5240 hc        1 MOL      0.067228
     98 H43        -2.1510    1.0640    3.4910 hc        1 MOL      0.067228
     99 H44        -2.3190    4.5130    5.6820 hc        1 MOL      0.027037
    100 H45        -2.4060    2.8270    6.1270 hc        1 MOL      0.027037
    101 H46        -0.9860    3.7310    6.6510 hc        1 MOL      0.027037
    102 N10        -1.7480    2.0290    0.0800 n         1 MOL     -0.258042
    103 C32        -2.5410    2.0810   -1.1230 c3        1 MOL     -0.057310
    104 C33        -4.0160    1.6380   -0.7970 c         1 MOL      0.549444
    105 O16        -4.3870    1.1500    0.2570 o         1 MOL     -0.456079
    106 C34        -1.8100    1.1050   -2.1010 c3        1 MOL     -0.284410
    107 C35        -0.3360    1.4600   -2.4380 c         1 MOL      0.747909
    108 O17         0.6140    1.0540   -1.6960 o         1 MOL     -0.658483
    109 O18        -0.1520    2.0420   -3.5290 o         1 MOL     -0.658483
    110 H47        -1.4910    1.1360    0.4920 hn        1 MOL      0.444038
    111 H48        -2.5940    3.0830   -1.5300 h1        1 MOL      0.094948
    112 H49        -2.3790    1.0810   -3.0390 hc        1 MOL      0.059058
    113 H50        -1.8780    0.1040   -1.6920 hc        1 MOL      0.059058
    114 N11        -4.9250    1.7650   -1.7550 n         1 MOL     -0.669860
    115 C36        -6.3210    1.3510   -1.5140 c3        1 MOL      0.442717
    116 C37        -6.5380   -0.0970   -1.1380 c         1 MOL      0.267769
    117 O19        -7.1630   -0.2350   -0.0400 o         1 MOL     -0.475081
    118 C38        -7.2190    1.8290   -2.6970 c3        1 MOL     -0.200961
    119 C39        -8.6750    1.8220   -2.4060 ca        1 MOL     -0.006874
    120 C40        -9.1630    2.8050   -1.5330 ca        1 MOL     -0.056602
    121 C41        -9.5180    0.8220   -2.8970 ca        1 MOL     -0.056602
    122 C42       -10.5000    2.9180   -1.2330 ca        1 MOL     -0.187976
    123 C43       -10.8860    0.9320   -2.6450 ca        1 MOL     -0.187976
    124 C44       -11.3430    2.0260   -1.8340 ca        1 MOL     -0.035313
    125 H51        -4.6540    2.1960   -2.6310 hn        1 MOL      0.329701
    126 H52        -6.7330    1.9220   -0.6860 h1        1 MOL      0.025906
    127 H53        -6.9660    1.2610   -3.5920 hc        1 MOL      0.062546
    128 H54        -6.9910    2.8690   -2.9510 hc        1 MOL      0.062546
    129 H55        -8.4510    3.4690   -1.0860 ha        1 MOL      0.093503
    130 H56        -9.1670    0.1650   -3.6800 ha        1 MOL      0.093503
    131 H57       -10.9160    3.5630   -0.4760 ha        1 MOL      0.128388
    132 H58       -11.5980    0.2610   -3.1090 ha        1 MOL      0.128388
    133 H59       -12.4070    2.2160   -1.7640 ha        1 MOL      0.071167
    134 N12        -6.0800   -1.1560   -1.8770 n         1 MOL     -0.212914
    135 C45        -6.1550   -2.4750   -1.4160 c3        1 MOL      0.129567
    136 C46        -5.5660   -2.7600    0.0020 c         1 MOL      0.199708
    137 O20        -6.0840   -3.6310    0.7390 o         1 MOL     -0.476409
    138 C47        -5.3550   -3.2830   -2.4330 c3        1 MOL     -0.056324
    139 C48        -5.1740   -2.3610   -3.5970 c3        1 MOL     -0.075042
    140 C49        -5.1110   -1.0800   -2.8710 c3        1 MOL      0.022623
    141 H60        -7.1690   -2.8770   -1.3280 h1        1 MOL      0.053803
    142 H61        -4.3690   -3.5470   -2.0350 hc        1 MOL      0.034508
    143 H62        -5.9330   -4.1760   -2.6980 hc        1 MOL      0.034508
    144 H63        -4.2700   -2.4750   -4.1920 hc        1 MOL      0.043752
    145 H64        -6.0150   -2.2990   -4.2920 hc        1 MOL      0.043752
    146 H65        -4.1130   -0.9660   -2.4500 h1        1 MOL      0.037336
    147 H66        -5.3670   -0.2730   -3.5470 h1        1 MOL      0.037336
    148 N13        -4.5610   -2.0070    0.4910 n         1 MOL      0.000770
    149 C50        -3.8970   -2.2770    1.7420 c3        1 MOL     -0.122958
    150 C51        -4.7430   -1.7590    2.9190 c         1 MOL      0.466646
    151 O21        -5.0440   -2.4930    3.8110 o         1 MOL     -0.530688
    152 C52        -2.5740   -1.4780    1.6720 c3        1 MOL     -0.118375
    153 C53        -1.7210   -2.0700    0.5050 c3        1 MOL     -0.055681
    154 C54        -0.3460   -1.4690    0.4420 c         1 MOL      0.469490
    155 O22         0.5380   -1.9410   -0.3080 o         1 MOL     -0.646425
    156 O23        -0.1020   -0.4070    1.0010 o         1 MOL     -0.646425
    157 H67        -4.3510   -1.1100    0.0580 hn        1 MOL      0.260010
    158 H68        -3.7760   -3.3350    1.9840 h1        1 MOL      0.122292
    159 H69        -2.0890   -1.5420    2.6450 hc        1 MOL      0.008907
    160 H70        -2.7900   -0.4330    1.4920 hc        1 MOL      0.008907
    161 H71        -2.2390   -1.9390   -0.4420 hc        1 MOL      0.054303
    162 H72        -1.6760   -3.1480    0.6200 hc        1 MOL      0.054303
    163 N14        -5.3430   -0.5560    2.7040 n         1 MOL     -0.026051
    164 C55        -6.3220    0.0270    3.5990 c3        1 MOL     -0.384547
    165 H73        -5.8970    0.1060    4.5990 h1        1 MOL      0.120157
    166 H74        -6.5960    1.0200    3.2420 h1        1 MOL      0.120157
    167 H75        -7.2080   -0.6060    3.6300 h1        1 MOL      0.120157
    168 H76        -5.1530   -0.1030    1.8270 hn        1 MOL      0.104472
    169 Ca1         2.1710    0.0530   -0.1230 Ca        1 MOL      1.697629
    170 O24         1.7020    0.1530    2.8760 oh        1 MOL     -0.827824
    171 H77         1.5700   -0.0330    3.8060 ho        1 MOL      0.405466
    172 H78         0.8830   -0.1370    2.4620 ho        1 MOL      0.405466
    173 O25         4.2240    0.5480    1.7670 oh        1 MOL     -0.827824
    174 H79         5.0170    0.3510    2.2660 ho        1 MOL      0.405466
    175 H80         3.5090    0.3420    2.3560 ho        1 MOL      0.405466
@<TRIPOS>BOND
     1    1    2 1   
     2    1    4 1   
     3    1    5 1   
     4    1    6 1   
     5    2    3 2   
     6    2    7 1   
     7    7    8 1   
     8    7   15 1   
     9    8    9 1   
    10    8   11 1   
    11    8   16 1   
    12    9   10 2   
    13    9   19 1   
    14   11   12 1   
    15   11   17 1   
    16   11   18 1   
    17   12   13 1   
    18   12   14 1   
    19   19   20 1   
    20   19   24 1   
    21   20   21 1   
    22   20   23 1   
    23   20   25 1   
    24   21   22 2   
    25   21   29 1   
    26   23   26 1   
    27   23   27 1   
    28   23   28 1   
    29   29   30 1   
    30   29   37 1   
    31   30   31 1   
    32   30   33 1   
    33   30   38 1   
    34   31   32 2   
    35   31   41 1   
    36   33   34 1   
    37   33   39 1   
    38   33   40 1   
    39   34   35 1   
    40   34   36 1   
    41   41   42 1   
    42   41   45 1   
    43   42   43 1   
    44   42   46 1   
    45   42   47 1   
    46   43   44 2   
    47   43   48 1   
    48   48   49 1   
    49   48   56 1   
    50   49   50 1   
    51   49   52 1   
    52   49   57 1   
    53   50   51 2   
    54   50   62 1   
    55   52   53 1   
    56   52   58 1   
    57   52   59 1   
    58   53   54 1   
    59   53   55 2   
    60   54   60 1   
    61   54   61 1   
    62   62   63 1   
    63   62   66 1   
    64   63   64 1   
    65   63   67 1   
    66   63   68 1   
    67   64   65 2   
    68   64   69 1   
    69   69   70 1   
    70   69   76 1   
    71   70   71 1   
    72   70   73 1   
    73   70   77 1   
    74   71   72 2   
    75   71   83 1   
    76   73   74 1   
    77   73   75 1   
    78   73   78 1   
    79   74   80 1   
    80   74   81 1   
    81   74   82 1   
    82   75   79 1   
    83   83   84 1   
    84   83   91 1   
    85   84   85 1   
    86   84   87 1   
    87   84   92 1   
    88   85   86 2   
    89   85  102 1   
    90   87   88 1   
    91   87   89 1   
    92   87   93 1   
    93   88   90 1   
    94   88   94 1   
    95   88   95 1   
    96   89   96 1   
    97   89   97 1   
    98   89   98 1   
    99   90   99 1   
   100   90  100 1   
   101   90  101 1   
   102  102  103 1   
   103  102  110 1   
   104  103  104 1   
   105  103  106 1   
   106  103  111 1   
   107  104  105 2   
   108  104  114 1   
   109  106  107 1   
   110  106  112 1   
   111  106  113 1   
   112  107  108 1   
   113  107  109 1   
   114  114  115 1   
   115  114  125 1   
   116  115  116 1   
   117  115  118 1   
   118  115  126 1   
   119  116  117 2   
   120  116  134 1   
   121  118  119 1   
   122  118  127 1   
   123  118  128 1   
   124  119  120 ar  
   125  119  121 ar  
   126  120  122 ar  
   127  120  129 1   
   128  121  123 ar  
   129  121  130 1   
   130  122  124 ar  
   131  122  131 1   
   132  123  124 ar  
   133  123  132 1   
   134  124  133 1   
   135  134  135 1   
   136  134  140 1   
   137  135  136 1   
   138  135  138 1   
   139  135  141 1   
   140  136  137 2   
   141  136  148 1   
   142  138  139 1   
   143  138  142 1   
   144  138  143 1   
   145  139  140 1   
   146  139  144 1   
   147  139  145 1   
   148  140  146 1   
   149  140  147 1   
   150  148  149 1   
   151  148  157 1   
   152  149  150 1   
   153  149  152 1   
   154  149  158 1   
   155  150  151 2   
   156  150  163 1   
   157  152  153 1   
   158  152  159 1   
   159  152  160 1   
   160  153  154 1   
   161  153  161 1   
   162  153  162 1   
   163  154  155 1   
   164  154  156 1   
   165  163  164 1   
   166  163  168 1   
   167  164  165 1   
   168  164  166 1   
   169  164  167 1   
   170  170  171 1   
   171  170  172 1   
   172  173  174 1   
   173  173  175 1   
@<TRIPOS>SUBSTRUCTURE
     1 MOL         1 TEMP              0 ****  ****    0 ROOT
