@<TRIPOS>MOLECULE
MOL
  182   178     1     0     0
SMALL
resp


@<TRIPOS>ATOM
      1 C1          1.6600    2.3160    6.6680 c3        1 MOL     -0.160714
      2 C2          1.3290    2.2080    5.1480 c         1 MOL      0.780293
      3 O1          2.2850    2.0100    4.4350 o         1 MOL     -0.595859
      4 H1          1.4120    3.3170    7.0230 hc        1 MOL      0.029019
      5 H2          1.0760    1.5790    7.2210 hc        1 MOL      0.029019
      6 H3          2.7230    2.1280    6.8230 hc        1 MOL      0.029019
      7 N1          0.0540    2.0960    4.7570 n         1 MOL     -0.650706
      8 C3         -0.3440    2.0210    3.3690 c3        1 MOL      0.045396
      9 C4         -0.1670    3.3660    2.6430 c         1 MOL      0.627246
     10 O2         -0.7150    4.3380    3.1200 o         1 MOL     -0.562738
     11 C5         -1.7590    1.4650    3.2150 c3        1 MOL      0.125888
     12 C6         -2.3800    1.3280    1.8110 c         1 MOL      0.540292
     13 O3         -1.6730    1.7020    0.8420 o         1 MOL     -0.635119
     14 O4         -3.5340    0.8780    1.7520 o         1 MOL     -0.635119
     15 H4         -0.6720    2.0270    5.4520 hn        1 MOL      0.333007
     16 H5          0.2690    1.2370    2.9170 h1        1 MOL      0.019823
     17 H6         -2.3750    2.1260    3.8280 hc        1 MOL     -0.033292
     18 H7         -1.7710    0.5060    3.7370 hc        1 MOL     -0.033292
     19 N2          0.4460    3.4430    1.4580 n         1 MOL     -0.365342
     20 C7          0.7660    4.6650    0.6670 c3        1 MOL     -0.168594
     21 C8         -0.3750    5.4320    0.0450 c         1 MOL      0.580721
     22 O5         -0.3840    6.6530    0.0480 o         1 MOL     -0.584375
     23 C9          1.9980    4.3670   -0.2350 c3        1 MOL     -0.307605
     24 C10         2.6960    5.6490   -0.7820 c3        1 MOL     -0.023020
     25 C11         3.9170    5.1150   -1.5060 c3        1 MOL      0.006501
     26 C12         4.5410    6.0520   -2.4840 c3        1 MOL     -0.145130
     27 N3          3.5710    6.4360   -3.5440 n4        1 MOL     -0.472838
     28 H8          0.5590    2.5190    1.0640 hn        1 MOL      0.067405
     29 H9          1.1230    5.3860    1.4000 h1        1 MOL      0.143433
     30 H10         1.7030    3.6730   -1.0190 hc        1 MOL      0.190464
     31 H11         2.7840    3.9060    0.3490 hc        1 MOL      0.190464
     32 H12         3.0060    6.2790    0.0460 hc        1 MOL      0.059949
     33 H13         2.0270    6.1670   -1.4750 hc        1 MOL      0.059949
     34 H14         3.6850    4.2130   -2.0800 hc        1 MOL      0.051477
     35 H15         4.7600    4.9110   -0.8460 hc        1 MOL      0.051477
     36 H16         5.3850    5.5810   -2.9790 hx        1 MOL      0.149171
     37 H17         5.0600    6.8820   -1.9890 hx        1 MOL      0.149171
     38 H18         4.1350    6.7180   -4.3320 hn        1 MOL      0.357204
     39 H19         3.0690    5.6530   -3.9450 hn        1 MOL      0.357204
     40 H20         2.9780    7.2020   -3.2610 hn        1 MOL      0.357204
     41 N4         -1.3950    4.7150   -0.3730 n         1 MOL     -0.348204
     42 C13        -2.6040    5.2360   -1.0240 c3        1 MOL      0.035178
     43 C14        -3.8810    4.9010   -0.3030 c         1 MOL      0.409135
     44 O6         -4.9120    5.4220   -0.6800 o         1 MOL     -0.520103
     45 C15        -2.6980    4.8640   -2.4910 c3        1 MOL     -0.414092
     46 C16        -2.5410    3.3580   -2.8290 c         1 MOL      0.862981
     47 O7         -2.5160    3.0770   -4.0720 o         1 MOL     -0.747232
     48 O8         -2.3250    2.5450   -1.9180 o         1 MOL     -0.747232
     49 H21        -1.3260    3.7150   -0.2960 hn        1 MOL      0.264138
     50 H22        -2.5180    6.3220   -0.9400 h1        1 MOL      0.113953
     51 H23        -1.8260    5.3290   -2.9620 hc        1 MOL      0.113092
     52 H24        -3.6070    5.2770   -2.9240 hc        1 MOL      0.113092
     53 N5         -3.8710    3.9440    0.5980 n         1 MOL     -0.135616
     54 C17        -5.0750    3.5940    1.2750 c3        1 MOL     -0.230745
     55 C18        -6.0090    2.6730    0.4640 c         1 MOL      0.558013
     56 O9         -7.2240    2.7310    0.6800 o         1 MOL     -0.554630
     57 H25        -3.0350    3.4670    0.8860 hn        1 MOL      0.216663
     58 H26        -5.7070    4.4790    1.3340 h1        1 MOL      0.111026
     59 H27        -4.8500    3.1890    2.2650 h1        1 MOL      0.111026
     60 N6         -5.4470    1.9000   -0.5110 n         1 MOL     -0.251833
     61 C19        -6.2920    0.9220   -1.2050 c3        1 MOL     -0.134142
     62 C20        -6.6120   -0.2590   -0.2570 c         1 MOL      0.479161
     63 O10        -7.3740   -1.0760   -0.6300 o         1 MOL     -0.539005
     64 C21        -5.7470    0.4930   -2.5250 c3        1 MOL     -0.079247
     65 C22        -4.4760   -0.3820   -2.4630 c         1 MOL      0.604310
     66 N7         -4.3120   -1.3070   -3.4470 n         1 MOL     -0.877722
     67 O11        -3.6530   -0.3090   -1.5720 o         1 MOL     -0.532905
     68 H28        -4.4400    1.8720   -0.5630 hn        1 MOL      0.172428
     69 H29        -7.2210    1.4730   -1.3650 h1        1 MOL      0.143646
     70 H30        -5.5610    1.3660   -3.1480 hc        1 MOL      0.074765
     71 H31        -6.5350   -0.0290   -3.0690 hc        1 MOL      0.074765
     72 H32        -4.9490   -1.4010   -4.2160 hn        1 MOL      0.389767
     73 H33        -3.5250   -1.9410   -3.4660 hn        1 MOL      0.389767
     74 N8         -6.0570   -0.3040    0.9460 n         1 MOL     -0.145653
     75 C23        -6.2940   -1.3950    1.9060 c3        1 MOL     -0.432091
     76 C24        -5.3470   -2.5920    1.6980 c         1 MOL      0.611092
     77 O12        -5.6430   -3.6590    2.1980 o         1 MOL     -0.541896
     78 H34        -5.3080    0.3730    1.0550 hn        1 MOL      0.200093
     79 H35        -7.3460   -1.6880    1.8080 h1        1 MOL      0.185688
     80 H36        -6.1220   -1.0500    2.9210 h1        1 MOL      0.185688
     81 N9         -4.2620   -2.3840    0.9780 n         1 MOL     -0.432282
     82 C25        -3.2270   -3.3450    0.6140 c3        1 MOL      0.349986
     83 C26        -1.8160   -2.8200    0.7890 c         1 MOL      0.446309
     84 O13        -1.6420   -1.6390    0.5160 o         1 MOL     -0.639044
     85 C27        -3.4950   -3.9830   -0.8160 c3        1 MOL      0.046122
     86 C28        -4.9190   -4.5690   -0.9620 ca        1 MOL      0.046156
     87 C29        -5.1070   -5.9310   -0.5810 ca        1 MOL     -0.292507
     88 C30        -6.0010   -3.8070   -1.3960 ca        1 MOL     -0.292507
     89 C31        -6.3920   -6.4520   -0.5190 ca        1 MOL     -0.100152
     90 C32        -7.3020   -4.3020   -1.4090 ca        1 MOL     -0.100152
     91 C33        -7.4800   -5.6810   -1.0160 ca        1 MOL      0.251972
     92 O14        -8.6760   -6.2590   -1.1830 oh        1 MOL     -0.502222
     93 H37        -4.1560   -1.4750    0.5490 hn        1 MOL      0.286227
     94 H38        -3.3150   -4.1630    1.3380 h1        1 MOL     -0.021362
     95 H39        -2.8270   -4.8230   -1.0150 hc        1 MOL     -0.021278
     96 H40        -3.3850   -3.2190   -1.5800 hc        1 MOL     -0.021278
     97 H41        -4.2560   -6.4660   -0.1830 ha        1 MOL      0.163231
     98 H42        -5.9190   -2.7760   -1.7200 ha        1 MOL      0.163231
     99 H43        -6.5230   -7.4400   -0.0820 ha        1 MOL      0.118344
    100 H44        -8.0760   -3.7590   -1.9380 ha        1 MOL      0.118344
    101 H45        -9.3150   -5.6570   -1.5840 ho        1 MOL      0.382413
    102 N10        -0.7750   -3.5880    1.1380 n         1 MOL     -0.576588
    103 C34         0.5680   -3.0120    1.3810 c3        1 MOL      0.211934
    104 C35         1.6640   -3.9550    0.6550 c         1 MOL      0.478143
    105 O15         1.7250   -5.1540    0.7120 o         1 MOL     -0.530112
    106 C36         0.7770   -3.0660    2.8870 c3        1 MOL      0.088187
    107 C37        -0.2380   -2.1380    3.6180 c3        1 MOL      0.306830
    108 C38         2.1540   -2.6380    3.3970 c3        1 MOL     -0.361342
    109 C39        -0.2150   -2.1320    5.1370 c3        1 MOL     -0.385160
    110 H46        -1.0390   -4.5410    1.3420 hn        1 MOL      0.301455
    111 H47         0.5720   -1.9790    1.0570 h1        1 MOL     -0.105462
    112 H48         0.5830   -4.0990    3.1980 hc        1 MOL     -0.007585
    113 H49        -1.2520   -2.3810    3.3210 hc        1 MOL     -0.027288
    114 H50        -0.0670   -1.1160    3.2900 hc        1 MOL     -0.027288
    115 H51         2.9640   -3.0400    2.7910 hc        1 MOL      0.078588
    116 H52         2.2340   -1.5530    3.3280 hc        1 MOL      0.078588
    117 H53         2.3440   -2.9690    4.4240 hc        1 MOL      0.078588
    118 H54        -0.2830   -3.0800    5.6550 hc        1 MOL      0.090260
    119 H55         0.6960   -1.6080    5.4330 hc        1 MOL      0.090260
    120 H56        -1.0760   -1.5380    5.4400 hc        1 MOL      0.090260
    121 N11         2.6260   -3.3080   -0.0210 n         1 MOL     -0.210080
    122 C40         3.5560   -3.8670   -0.9300 c3        1 MOL     -0.001254
    123 C41         4.9680   -3.6660   -0.5500 c         1 MOL      0.380777
    124 O16         5.3410   -2.9910    0.4030 o         1 MOL     -0.371375
    125 C42         3.2810   -3.2710   -2.3260 c3        1 MOL     -0.090653
    126 O17         3.5520   -1.8790   -2.2800 oh        1 MOL     -0.483656
    127 H57         2.6730   -2.3000   -0.0050 hn        1 MOL      0.320524
    128 H58         3.3530   -4.9400   -1.0460 h1        1 MOL      0.061406
    129 H59         2.2150   -3.4560   -2.3910 h1        1 MOL      0.091915
    130 H60         3.8250   -3.8630   -3.0540 h1        1 MOL      0.091915
    131 H61         2.8730   -1.5720   -1.6740 ho        1 MOL      0.177064
    132 N12         5.9000   -4.1990   -1.3170 n         1 MOL     -0.379272
    133 C43         7.3520   -4.2740   -1.0570 c3        1 MOL      0.130313
    134 C44         8.0120   -2.8170   -1.0870 c         1 MOL      0.404576
    135 O18         8.7160   -2.4830   -0.1270 o         1 MOL     -0.507699
    136 C45         7.9140   -5.2940   -2.0060 c3        1 MOL     -0.345921
    137 H62         5.5440   -4.6680   -2.1340 hn        1 MOL      0.267309
    138 H63         7.5450   -4.5840   -0.0360 h1        1 MOL      0.094993
    139 H64         8.9280   -5.5120   -1.6830 hc        1 MOL      0.101780
    140 H65         7.3090   -6.1950   -1.8990 hc        1 MOL      0.101780
    141 H66         7.8690   -5.0230   -3.0630 hc        1 MOL      0.101780
    142 N13         7.6210   -2.0530   -2.0550 n         1 MOL     -0.292670
    143 C46         8.1200   -0.6850   -2.0970 c3        1 MOL      0.017476
    144 C47         7.4060    0.1800   -1.0500 c         1 MOL      0.467434
    145 O19         7.9590    1.2010   -0.6830 o         1 MOL     -0.524947
    146 C48         8.2630   -0.1070   -3.5030 c3        1 MOL     -0.176394
    147 H67         7.1320   -2.4580   -2.8370 hn        1 MOL      0.270559
    148 H68         9.1390   -0.7440   -1.7050 h1        1 MOL      0.117234
    149 H69         7.3950    0.4570   -3.8490 hc        1 MOL      0.053964
    150 H70         9.1150    0.5630   -3.5190 hc        1 MOL      0.053964
    151 H71         8.4500   -0.9100   -4.2110 hc        1 MOL      0.053964
    152 N14         6.2100   -0.1280   -0.5930 n         1 MOL     -0.172822
    153 C49         5.5450    0.6700    0.4420 c3        1 MOL     -0.026486
    154 C50         6.2810    0.3460    1.7940 c         1 MOL      0.372945
    155 O20         6.8380    1.2980    2.4200 o         1 MOL     -0.498060
    156 C51         4.0270    0.2760    0.5280 c3        1 MOL      0.179709
    157 C52         3.1760    0.9400   -0.5530 c3        1 MOL      0.128424
    158 C53         1.7980    0.3790   -0.4240 c         1 MOL      0.667433
    159 O21         1.5800   -0.7870   -0.8220 o         1 MOL     -0.542234
    160 O22         0.9140    1.0570    0.0900 o         1 MOL     -0.542234
    161 H72         5.8330   -1.0150   -0.8900 hn        1 MOL      0.084700
    162 H73         5.6140    1.7330    0.2270 h1        1 MOL      0.068338
    163 H74         3.6200    0.6370    1.4720 hc        1 MOL     -0.058119
    164 H75         3.9410   -0.8060    0.4660 hc        1 MOL     -0.058119
    165 H76         3.6490    0.8660   -1.5330 hc        1 MOL     -0.113883
    166 H77         3.2520    2.0130   -0.4230 hc        1 MOL     -0.113883
    167 N15         6.5750   -0.9440    2.0440 n         1 MOL     -0.078077
    168 C54         7.5190   -1.3340    3.1180 c3        1 MOL     -0.522130
    169 H78         7.3380   -0.7210    4.0000 h1        1 MOL      0.183155
    170 H79         7.3690   -2.3850    3.3700 h1        1 MOL      0.183155
    171 H80         8.5420   -1.1840    2.7750 h1        1 MOL      0.183155
    172 H81         6.1850   -1.7060    1.5100 hn        1 MOL      0.139776
    173 Ca1        -1.0630    0.3370   -1.2580 Ca        1 MOL      1.740502
    174 O23        -0.3080   -1.8850   -2.4960 oh        1 MOL     -0.854127
    175 H82         0.4030   -1.7750   -3.1320 ho        1 MOL      0.402389
    176 H83        -0.3720   -2.8300   -2.3700 ho        1 MOL      0.402389
    177 O24        -1.8370    0.4840   -3.9080 oh        1 MOL     -0.854127
    178 H84        -1.7880    0.0840   -4.7840 ho        1 MOL      0.402389
    179 H85        -2.1920    1.3600   -4.0610 ho        1 MOL      0.402389
    180 O25         0.8140    1.6300   -2.8020 oh        1 MOL     -0.854127
    181 H86         1.4450    1.1150   -3.2910 ho        1 MOL      0.402389
    182 H87         0.4930    2.2780   -3.4300 ho        1 MOL      0.402389
@<TRIPOS>BOND
     1    1    2 1   
     2    1    4 1   
     3    1    5 1   
     4    1    6 1   
     5    2    3 2   
     6    2    7 1   
     7    7    8 1   
     8    7   15 1   
     9    8    9 1   
    10    8   11 1   
    11    8   16 1   
    12    9   10 2   
    13    9   19 1   
    14   11   12 1   
    15   11   17 1   
    16   11   18 1   
    17   12   13 1   
    18   12   14 1   
    19   19   20 1   
    20   19   28 1   
    21   20   21 1   
    22   20   23 1   
    23   20   29 1   
    24   21   22 2   
    25   21   41 1   
    26   23   24 1   
    27   23   30 1   
    28   23   31 1   
    29   24   25 1   
    30   24   32 1   
    31   24   33 1   
    32   25   26 1   
    33   25   34 1   
    34   25   35 1   
    35   26   27 1   
    36   26   36 1   
    37   26   37 1   
    38   27   38 1   
    39   27   39 1   
    40   27   40 1   
    41   41   42 1   
    42   41   49 1   
    43   42   43 1   
    44   42   45 1   
    45   42   50 1   
    46   43   44 2   
    47   43   53 1   
    48   45   46 1   
    49   45   51 1   
    50   45   52 1   
    51   46   47 1   
    52   46   48 1   
    53   53   54 1   
    54   53   57 1   
    55   54   55 1   
    56   54   58 1   
    57   54   59 1   
    58   55   56 2   
    59   55   60 1   
    60   60   61 1   
    61   60   68 1   
    62   61   62 1   
    63   61   64 1   
    64   61   69 1   
    65   62   63 2   
    66   62   74 1   
    67   64   65 1   
    68   64   70 1   
    69   64   71 1   
    70   65   66 1   
    71   65   67 2   
    72   66   72 1   
    73   66   73 1   
    74   74   75 1   
    75   74   78 1   
    76   75   76 1   
    77   75   79 1   
    78   75   80 1   
    79   76   77 2   
    80   76   81 1   
    81   81   82 1   
    82   81   93 1   
    83   82   83 1   
    84   82   85 1   
    85   82   94 1   
    86   83   84 2   
    87   83  102 1   
    88   85   86 1   
    89   85   95 1   
    90   85   96 1   
    91   86   87 ar  
    92   86   88 ar  
    93   87   89 ar  
    94   87   97 1   
    95   88   90 ar  
    96   88   98 1   
    97   89   91 ar  
    98   89   99 1   
    99   90   91 ar  
   100   90  100 1   
   101   91   92 1   
   102   92  101 1   
   103  102  103 1   
   104  102  110 1   
   105  103  104 1   
   106  103  106 1   
   107  103  111 1   
   108  104  105 2   
   109  104  121 1   
   110  106  107 1   
   111  106  108 1   
   112  106  112 1   
   113  107  109 1   
   114  107  113 1   
   115  107  114 1   
   116  108  115 1   
   117  108  116 1   
   118  108  117 1   
   119  109  118 1   
   120  109  119 1   
   121  109  120 1   
   122  121  122 1   
   123  121  127 1   
   124  122  123 1   
   125  122  125 1   
   126  122  128 1   
   127  123  124 2   
   128  123  132 1   
   129  125  126 1   
   130  125  129 1   
   131  125  130 1   
   132  126  131 1   
   133  132  133 1   
   134  132  137 1   
   135  133  134 1   
   136  133  136 1   
   137  133  138 1   
   138  134  135 2   
   139  134  142 1   
   140  136  139 1   
   141  136  140 1   
   142  136  141 1   
   143  142  143 1   
   144  142  147 1   
   145  143  144 1   
   146  143  146 1   
   147  143  148 1   
   148  144  145 2   
   149  144  152 1   
   150  146  149 1   
   151  146  150 1   
   152  146  151 1   
   153  152  153 1   
   154  152  161 1   
   155  153  154 1   
   156  153  156 1   
   157  153  162 1   
   158  154  155 2   
   159  154  167 1   
   160  156  157 1   
   161  156  163 1   
   162  156  164 1   
   163  157  158 1   
   164  157  165 1   
   165  157  166 1   
   166  158  159 1   
   167  158  160 1   
   168  167  168 1   
   169  167  172 1   
   170  168  169 1   
   171  168  170 1   
   172  168  171 1   
   173  174  175 1   
   174  174  176 1   
   175  177  178 1   
   176  177  179 1   
   177  180  181 1   
   178  180  182 1   
@<TRIPOS>SUBSTRUCTURE
     1 MOL         1 TEMP              0 ****  ****    0 ROOT
