@<TRIPOS>MOLECULE
MOL
  189   185     1     0     0
SMALL
resp


@<TRIPOS>ATOM
      1 C1          0.5130    0.5780    6.4010 c3        1 MOL     -0.235339
      2 C2          0.0050    0.9450    5.0150 c         1 MOL      0.698273
      3 O1          0.7780    1.6660    4.3340 o         1 MOL     -0.594460
      4 H1          0.3140    1.3990    7.0910 hc        1 MOL      0.059502
      5 H2          0.0030   -0.3200    6.7500 hc        1 MOL      0.059502
      6 H3          1.5870    0.3920    6.3580 hc        1 MOL      0.059502
      7 N1         -1.2120    0.7310    4.6220 n         1 MOL     -0.563478
      8 C3         -1.7570    0.9740    3.2830 c3        1 MOL      0.013622
      9 C4         -2.0340    2.4830    3.0100 c         1 MOL      0.625325
     10 O2         -2.8120    3.1340    3.7850 o         1 MOL     -0.576930
     11 C5         -3.0130    0.0890    3.1090 c3        1 MOL     -0.293742
     12 C6         -3.7030    0.2700    1.7660 c         1 MOL      0.842409
     13 O3         -4.8380   -0.2700    1.7160 o         1 MOL     -0.698690
     14 O4         -3.1650    0.7650    0.7430 o         1 MOL     -0.698690
     15 H4         -1.7420    0.1080    5.2230 hn        1 MOL      0.329272
     16 H5         -1.0340    0.6710    2.5290 h1        1 MOL      0.039420
     17 H6         -3.7980    0.3570    3.8260 hc        1 MOL      0.083036
     18 H7         -2.7910   -0.9530    3.3230 hc        1 MOL      0.083036
     19 N2         -1.5350    2.9930    1.8910 n         1 MOL     -0.295519
     20 C7         -1.5060    4.4170    1.6680 c3        1 MOL     -0.129612
     21 C8         -2.4940    4.9000    0.5830 c         1 MOL      0.529282
     22 O5         -2.8210    6.0940    0.5250 o         1 MOL     -0.622727
     23 C9         -0.0730    4.8090    1.1900 c3        1 MOL      0.414884
     24 C10         0.1120    6.3390    1.1010 c3        1 MOL     -0.085236
     25 C11         1.5500    6.7200    1.1310 c3        1 MOL     -0.056626
     26 C12         1.7950    7.9630    0.2980 c3        1 MOL      0.189423
     27 N3          3.2410    8.1920    0.1160 n4        1 MOL     -0.534828
     28 H8         -1.1640    2.3420    1.2190 hn        1 MOL      0.130167
     29 H9         -1.7920    4.9410    2.5780 h1        1 MOL      0.097754
     30 H10         0.1720    4.3720    0.2260 hc        1 MOL     -0.069798
     31 H11         0.5360    4.4110    2.0030 hc        1 MOL     -0.069798
     32 H12        -0.4150    6.8190    1.9250 hc        1 MOL      0.019419
     33 H13        -0.3390    6.5880    0.1450 hc        1 MOL      0.019419
     34 H14         2.2020    5.9460    0.7140 hc        1 MOL      0.025343
     35 H15         1.8240    6.8760    2.1750 hc        1 MOL      0.025343
     36 H16         1.4020    8.8890    0.7110 hx        1 MOL      0.053959
     37 H17         1.3660    7.8590   -0.6970 hx        1 MOL      0.053959
     38 H18         3.4900    8.7770   -0.6720 hn        1 MOL      0.359281
     39 H19         3.5340    8.6480    0.9590 hn        1 MOL      0.359281
     40 H20         3.6730    7.3000   -0.0600 hn        1 MOL      0.359281
     41 N4         -3.1370    4.0570   -0.2130 n         1 MOL     -0.217282
     42 C13        -4.3080    4.4890   -1.1110 c3        1 MOL      0.067619
     43 C14        -5.5830    3.6620   -0.8830 c         1 MOL      0.410024
     44 O6         -6.4740    3.7590   -1.7050 o         1 MOL     -0.490926
     45 C15        -3.8940    4.4470   -2.5860 c3        1 MOL     -0.355510
     46 C16        -3.1220    3.1020   -2.9790 c         1 MOL      0.821044
     47 O7         -3.2080    2.0940   -2.1950 o         1 MOL     -0.683328
     48 O8         -2.4370    3.0570   -3.9950 o         1 MOL     -0.683328
     49 H21        -3.0820    3.0480   -0.1290 hn        1 MOL      0.045250
     50 H22        -4.5310    5.5100   -0.8010 h1        1 MOL      0.104629
     51 H23        -3.1720    5.2330   -2.8140 hc        1 MOL      0.084980
     52 H24        -4.8040    4.4740   -3.1960 hc        1 MOL      0.084980
     53 N5         -5.6830    2.9050    0.2190 n         1 MOL     -0.254688
     54 C17        -6.9610    2.3750    0.6980 c3        1 MOL     -0.260913
     55 C18        -7.5240    1.2420   -0.0860 c         1 MOL      0.580427
     56 O9         -8.7060    0.8980    0.1850 o         1 MOL     -0.572315
     57 H25        -4.9340    2.9210    0.8930 hn        1 MOL      0.255487
     58 H26        -7.7050    3.1820    0.6930 h1        1 MOL      0.128453
     59 H27        -6.8490    1.9940    1.7090 h1        1 MOL      0.128453
     60 N6         -6.7380    0.5840   -1.0110 n         1 MOL     -0.150244
     61 C19        -7.2590   -0.3720   -1.9700 c3        1 MOL     -0.177765
     62 C20        -7.4630   -1.7650   -1.3450 c         1 MOL      0.476622
     63 O10        -8.1910   -2.6140   -1.9090 o         1 MOL     -0.544730
     64 C21        -6.2640   -0.4960   -3.1930 c3        1 MOL     -0.177509
     65 C22        -4.8180   -0.8970   -2.8020 c         1 MOL      0.691916
     66 O11        -4.4760   -1.0600   -1.5950 o         1 MOL     -0.688386
     67 O12        -3.9840   -0.9790   -3.7110 o         1 MOL     -0.688386
     68 H28        -5.8170    0.4320   -0.6340 hn        1 MOL      0.090055
     69 H29        -8.1870    0.1080   -2.2790 h1        1 MOL      0.140075
     70 H30        -6.2390    0.3630   -3.8680 hc        1 MOL      0.083029
     71 H31        -6.6670   -1.3000   -3.8080 hc        1 MOL      0.083029
     72 N7         -6.7870   -2.0060   -0.1950 n         1 MOL     -0.203863
     73 C23        -6.9630   -3.2040    0.6580 c3        1 MOL     -0.108362
     74 C24        -5.8490   -4.1920    0.5980 c         1 MOL      0.467695
     75 O13        -6.0650   -5.3440    1.0110 o         1 MOL     -0.549519
     76 H32        -6.1420   -1.2950    0.0980 hn        1 MOL      0.235297
     77 H33        -7.9400   -3.6540    0.4970 h1        1 MOL      0.092930
     78 H34        -6.9650   -2.8360    1.6910 h1        1 MOL      0.092930
     79 N8         -4.6820   -3.7220    0.1700 n         1 MOL     -0.103341
     80 C25        -3.4360   -4.4010    0.0170 c3        1 MOL     -0.180135
     81 C26        -2.2300   -3.4750    0.2920 c         1 MOL      0.731710
     82 O14        -2.2970   -2.1950    0.2530 o         1 MOL     -0.715413
     83 C27        -3.1690   -5.1060   -1.3350 c3        1 MOL      0.253617
     84 C28        -4.1070   -6.2360   -1.7490 c3        1 MOL     -0.478651
     85 O15        -3.2350   -4.1590   -2.3860 oh        1 MOL     -0.496143
     86 H35        -4.6560   -2.7500   -0.0990 hn        1 MOL      0.140849
     87 H36        -3.3580   -5.1140    0.8380 h1        1 MOL      0.084299
     88 H37        -2.1560   -5.4980   -1.4100 h1        1 MOL      0.068563
     89 H38        -4.0980   -3.7640   -2.1910 ho        1 MOL      0.348459
     90 H39        -5.1610   -5.9740   -1.6700 hc        1 MOL      0.131957
     91 H40        -3.9140   -6.4100   -2.8040 hc        1 MOL      0.131957
     92 H41        -4.0440   -7.1040   -1.0900 hc        1 MOL      0.131957
     93 N9         -1.1350   -4.1100    0.7090 n         1 MOL     -0.605279
     94 C29         0.0950   -3.4490    1.0490 c3        1 MOL      0.026319
     95 C30         1.2360   -3.7870    0.0270 c         1 MOL      0.463156
     96 O16         1.3950   -5.0120   -0.3090 o         1 MOL     -0.550319
     97 C31         0.4710   -3.9290    2.5340 c3        1 MOL      0.166755
     98 C32        -0.5050   -3.1520    3.4440 c3        1 MOL      0.257185
     99 C33         1.9050   -3.6830    2.8440 c3        1 MOL     -0.218925
    100 C34        -0.5460   -3.7510    4.8680 c3        1 MOL     -0.292146
    101 H42        -1.1500   -5.1190    0.7110 hn        1 MOL      0.302498
    102 H43        -0.0260   -2.3690    0.9410 h1        1 MOL      0.101479
    103 H44         0.2250   -4.9770    2.7210 hc        1 MOL      0.013640
    104 H45        -1.5200   -3.2220    3.0420 hc        1 MOL     -0.034269
    105 H46        -0.1310   -2.1360    3.5220 hc        1 MOL     -0.034269
    106 H47         2.5250   -4.3370    2.2330 hc        1 MOL      0.035269
    107 H48         2.2480   -2.6410    2.8600 hc        1 MOL      0.035269
    108 H49         1.9430   -4.0540    3.8650 hc        1 MOL      0.035269
    109 H50        -1.3280   -3.2000    5.3800 hc        1 MOL      0.052935
    110 H51        -0.8520   -4.7950    4.9300 hc        1 MOL      0.052935
    111 H52         0.4370   -3.6380    5.3440 hc        1 MOL      0.052935
    112 N10         2.0070   -2.7730   -0.4170 n         1 MOL     -0.130225
    113 C35         3.2600   -2.8990   -1.2120 c3        1 MOL      0.011944
    114 C36         4.5700   -2.9680   -0.3970 c         1 MOL      0.574453
    115 O17         4.6730   -2.6520    0.8140 o         1 MOL     -0.527808
    116 C37         3.4140   -1.9380   -2.3930 c3        1 MOL      0.173820
    117 C38         2.1750   -1.8940   -3.1790 c3        1 MOL     -0.355205
    118 O18         3.7410   -0.6590   -1.9290 oh        1 MOL     -0.550108
    119 H53         1.7060   -1.8480   -0.1750 hn        1 MOL      0.065486
    120 H54         3.1430   -3.9330   -1.5470 h1        1 MOL      0.046890
    121 H55         4.2490   -2.3370   -2.9780 h1        1 MOL      0.044995
    122 H56         2.9810   -0.2090   -2.3050 ho        1 MOL      0.421939
    123 H57         1.7560   -2.8920   -3.2660 hc        1 MOL      0.105571
    124 H58         1.4300   -1.3140   -2.6320 hc        1 MOL      0.105571
    125 H59         2.3780   -1.4490   -4.1590 hc        1 MOL      0.105571
    126 N11         5.6510   -3.3730   -1.1120 n         1 MOL     -0.497356
    127 C39         6.9660   -3.2620   -0.4990 c3        1 MOL      0.227166
    128 C40         7.3640   -1.8320   -0.2380 c         1 MOL      0.390751
    129 O19         7.9820   -1.6370    0.8100 o         1 MOL     -0.469854
    130 C41         8.0290   -4.0620   -1.1960 c3        1 MOL      0.356947
    131 C42         9.0390   -4.7250   -0.2340 c3        1 MOL     -0.328357
    132 O20         7.4330   -4.9820   -2.0920 oh        1 MOL     -0.656946
    133 H60         5.6120   -3.6200   -2.0900 hn        1 MOL      0.279772
    134 H61         6.9220   -3.7100    0.5010 h1        1 MOL      0.063354
    135 H62         8.6010   -3.3890   -1.8470 h1        1 MOL     -0.053247
    136 H63         8.1450   -5.5130   -2.4500 ho        1 MOL      0.414407
    137 H64         9.4470   -3.9160    0.3720 hc        1 MOL      0.087764
    138 H65         8.4570   -5.3580    0.4360 hc        1 MOL      0.087764
    139 H66         9.8240   -5.3100   -0.7160 hc        1 MOL      0.087764
    140 N12         6.9110   -0.9260   -1.1520 n         1 MOL     -0.522619
    141 C43         6.9920    0.5520   -0.9560 c3        1 MOL      0.214465
    142 C44         6.1780    1.0370    0.2410 c         1 MOL      0.274031
    143 O21         6.6550    1.9040    0.9890 o         1 MOL     -0.535375
    144 C45         6.5930    1.2590   -2.2770 c3        1 MOL     -0.332926
    145 C46         7.1420    2.7060   -2.3740 c3        1 MOL      0.158489
    146 C47         7.6710    3.0600   -3.8110 c3        1 MOL      0.000803
    147 C48         8.3960    4.4000   -3.9060 c3        1 MOL     -0.130057
    148 N13         9.6930    4.3220   -3.2510 n4        1 MOL     -0.187852
    149 H67         6.3150   -1.2850   -1.8870 hn        1 MOL      0.280576
    150 H68         7.9850    0.9030   -0.6450 h1        1 MOL      0.065995
    151 H69         5.5120    1.2160   -2.4300 hc        1 MOL      0.097597
    152 H70         7.1800    0.7390   -3.0470 hc        1 MOL      0.097597
    153 H71         8.0030    2.8580   -1.7180 hc        1 MOL     -0.016497
    154 H72         6.3800    3.4130   -2.0720 hc        1 MOL     -0.016497
    155 H73         6.8560    3.0170   -4.5320 hc        1 MOL      0.043497
    156 H74         8.3460    2.2930   -4.1760 hc        1 MOL      0.043497
    157 H75         7.7340    5.1070   -3.4080 hx        1 MOL      0.115922
    158 H76         8.5360    4.6160   -4.9640 hx        1 MOL      0.115922
    159 H77        10.1410    5.2120   -3.3910 hn        1 MOL      0.246765
    160 H78         9.5730    4.2380   -2.2430 hn        1 MOL      0.246765
    161 H79        10.2590    3.5200   -3.4750 hn        1 MOL      0.246765
    162 N14         4.9870    0.4780    0.4670 n         1 MOL      0.015566
    163 C49         4.0940    0.8340    1.5380 c3        1 MOL     -0.245373
    164 C50         4.5470    0.3710    2.9550 c         1 MOL      0.483436
    165 O22         4.2330    0.9960    3.9250 o         1 MOL     -0.526913
    166 C51         2.5970    0.3970    1.2730 c3        1 MOL      0.432735
    167 C52         1.9490    1.2820    0.2080 c3        1 MOL     -0.018859
    168 C53         0.6080    0.8200   -0.1640 c         1 MOL      0.652985
    169 O23         0.4140   -0.2980   -0.5460 o         1 MOL     -0.666941
    170 O24        -0.3380    1.5870   -0.2710 o         1 MOL     -0.666941
    171 H80         4.6300   -0.0690   -0.2970 hn        1 MOL      0.077285
    172 H81         4.0440    1.9250    1.5310 h1        1 MOL      0.086768
    173 H82         2.0980    0.5980    2.2170 hc        1 MOL     -0.094776
    174 H83         2.5480   -0.6660    1.0270 hc        1 MOL     -0.094776
    175 H84         2.5650    1.4420   -0.6680 hc        1 MOL     -0.038264
    176 H85         1.8350    2.2560    0.6890 hc        1 MOL     -0.038264
    177 N15         5.4690   -0.5790    2.9420 n         1 MOL     -0.107510
    178 C54         6.1620   -0.9430    4.1890 c3        1 MOL     -0.242460
    179 H86         5.9790   -0.1770    4.9420 h1        1 MOL      0.098212
    180 H87         5.7870   -1.9020    4.5480 h1        1 MOL      0.098212
    181 H88         7.2340   -1.0190    4.0020 h1        1 MOL      0.098212
    182 H89         5.7250   -1.0640    2.0930 hn        1 MOL      0.187064
    183 Ca1        -2.0850   -0.1670   -1.3260 Ca        1 MOL      1.759021
    184 O25        -1.0500    0.6550   -3.7910 oh        1 MOL     -0.847843
    185 H90        -1.6760    1.2930   -4.1440 ho        1 MOL      0.396343
    186 H91        -1.0520   -0.0630   -4.4350 ho        1 MOL      0.396343
    187 O26        -1.0840   -2.1830   -3.1420 oh        1 MOL     -0.847843
    188 H92        -1.6360   -2.9410   -3.3460 ho        1 MOL      0.396343
    189 H93        -0.2450   -2.3740   -3.5630 ho        1 MOL      0.396343
@<TRIPOS>BOND
     1    1    2 1   
     2    1    4 1   
     3    1    5 1   
     4    1    6 1   
     5    2    3 2   
     6    2    7 1   
     7    7    8 1   
     8    7   15 1   
     9    8    9 1   
    10    8   11 1   
    11    8   16 1   
    12    9   10 2   
    13    9   19 1   
    14   11   12 1   
    15   11   17 1   
    16   11   18 1   
    17   12   13 1   
    18   12   14 1   
    19   19   20 1   
    20   19   28 1   
    21   20   21 1   
    22   20   23 1   
    23   20   29 1   
    24   21   22 2   
    25   21   41 1   
    26   23   24 1   
    27   23   30 1   
    28   23   31 1   
    29   24   25 1   
    30   24   32 1   
    31   24   33 1   
    32   25   26 1   
    33   25   34 1   
    34   25   35 1   
    35   26   27 1   
    36   26   36 1   
    37   26   37 1   
    38   27   38 1   
    39   27   39 1   
    40   27   40 1   
    41   41   42 1   
    42   41   49 1   
    43   42   43 1   
    44   42   45 1   
    45   42   50 1   
    46   43   44 2   
    47   43   53 1   
    48   45   46 1   
    49   45   51 1   
    50   45   52 1   
    51   46   47 1   
    52   46   48 1   
    53   53   54 1   
    54   53   57 1   
    55   54   55 1   
    56   54   58 1   
    57   54   59 1   
    58   55   56 2   
    59   55   60 1   
    60   60   61 1   
    61   60   68 1   
    62   61   62 1   
    63   61   64 1   
    64   61   69 1   
    65   62   63 2   
    66   62   72 1   
    67   64   65 1   
    68   64   70 1   
    69   64   71 1   
    70   65   66 1   
    71   65   67 1   
    72   72   73 1   
    73   72   76 1   
    74   73   74 1   
    75   73   77 1   
    76   73   78 1   
    77   74   75 2   
    78   74   79 1   
    79   79   80 1   
    80   79   86 1   
    81   80   81 1   
    82   80   83 1   
    83   80   87 1   
    84   81   82 2   
    85   81   93 1   
    86   83   84 1   
    87   83   85 1   
    88   83   88 1   
    89   84   90 1   
    90   84   91 1   
    91   84   92 1   
    92   85   89 1   
    93   93   94 1   
    94   93  101 1   
    95   94   95 1   
    96   94   97 1   
    97   94  102 1   
    98   95   96 2   
    99   95  112 1   
   100   97   98 1   
   101   97   99 1   
   102   97  103 1   
   103   98  100 1   
   104   98  104 1   
   105   98  105 1   
   106   99  106 1   
   107   99  107 1   
   108   99  108 1   
   109  100  109 1   
   110  100  110 1   
   111  100  111 1   
   112  112  113 1   
   113  112  119 1   
   114  113  114 1   
   115  113  116 1   
   116  113  120 1   
   117  114  115 2   
   118  114  126 1   
   119  116  117 1   
   120  116  118 1   
   121  116  121 1   
   122  117  123 1   
   123  117  124 1   
   124  117  125 1   
   125  118  122 1   
   126  126  127 1   
   127  126  133 1   
   128  127  128 1   
   129  127  130 1   
   130  127  134 1   
   131  128  129 2   
   132  128  140 1   
   133  130  131 1   
   134  130  132 1   
   135  130  135 1   
   136  131  137 1   
   137  131  138 1   
   138  131  139 1   
   139  132  136 1   
   140  140  141 1   
   141  140  149 1   
   142  141  142 1   
   143  141  144 1   
   144  141  150 1   
   145  142  143 2   
   146  142  162 1   
   147  144  145 1   
   148  144  151 1   
   149  144  152 1   
   150  145  146 1   
   151  145  153 1   
   152  145  154 1   
   153  146  147 1   
   154  146  155 1   
   155  146  156 1   
   156  147  148 1   
   157  147  157 1   
   158  147  158 1   
   159  148  159 1   
   160  148  160 1   
   161  148  161 1   
   162  162  163 1   
   163  162  171 1   
   164  163  164 1   
   165  163  166 1   
   166  163  172 1   
   167  164  165 2   
   168  164  177 1   
   169  166  167 1   
   170  166  173 1   
   171  166  174 1   
   172  167  168 1   
   173  167  175 1   
   174  167  176 1   
   175  168  169 1   
   176  168  170 1   
   177  177  178 1   
   178  177  182 1   
   179  178  179 1   
   180  178  180 1   
   181  178  181 1   
   182  184  185 1   
   183  184  186 1   
   184  187  188 1   
   185  187  189 1   
@<TRIPOS>SUBSTRUCTURE
     1 MOL         1 TEMP              0 ****  ****    0 ROOT
