@<TRIPOS>MOLECULE
MOL
  189   185     1     0     0
SMALL
resp


@<TRIPOS>ATOM
      1 C1         -0.0410    0.0040    6.5270 c3        1 MOL     -0.248298
      2 C2         -0.3150    0.2350    5.0400 c         1 MOL      0.761728
      3 O1          0.4490    0.8940    4.3840 o         1 MOL     -0.617980
      4 H1         -0.7020   -0.7790    6.9000 hc        1 MOL      0.057703
      5 H2          0.9960   -0.3010    6.6630 hc        1 MOL      0.057703
      6 H3         -0.2250    0.9260    7.0780 hc        1 MOL      0.057703
      7 N1         -1.3900   -0.3310    4.4910 n         1 MOL     -0.597738
      8 C3         -2.0600    0.2870    3.2410 c3        1 MOL      0.195716
      9 C4         -2.4870    1.7190    3.4530 c         1 MOL      0.410768
     10 O2         -3.2770    1.9900    4.3470 o         1 MOL     -0.529461
     11 C5         -3.3610   -0.5140    2.9890 c3        1 MOL     -0.419096
     12 C6         -4.0930   -0.1230    1.6790 c         1 MOL      0.869670
     13 O3         -5.2290   -0.5130    1.5480 o         1 MOL     -0.665811
     14 O4         -3.4890    0.6220    0.8110 o         1 MOL     -0.665811
     15 H4         -1.9860   -0.9100    5.0720 hn        1 MOL      0.324924
     16 H5         -1.3360    0.3590    2.4260 h1        1 MOL      0.009028
     17 H6         -4.0260   -0.3300    3.8400 hc        1 MOL      0.102485
     18 H7         -3.0780   -1.5390    2.7510 hc        1 MOL      0.102485
     19 N2         -2.1690    2.6130    2.4630 n         1 MOL     -0.091377
     20 C7         -2.3150    4.0290    2.6260 c3        1 MOL      0.090885
     21 C8         -3.2970    4.6260    1.6200 c         1 MOL      0.395240
     22 O5         -3.8030    5.7450    1.8720 o         1 MOL     -0.573862
     23 C9         -0.9360    4.6630    2.6720 c3        1 MOL     -0.083850
     24 C10        -0.1980    4.7560    1.3010 c3        1 MOL      0.473853
     25 C11         1.2190    5.2640    1.4820 c3        1 MOL     -0.146237
     26 C12         2.1560    5.0990    0.3100 c3        1 MOL     -0.062477
     27 N3          2.0770    6.1910   -0.7070 n4        1 MOL     -0.391700
     28 H8         -1.5770    2.3140    1.7090 hn        1 MOL     -0.018753
     29 H9         -2.8050    4.2240    3.5810 h1        1 MOL      0.065591
     30 H10        -0.3110    4.1540    3.3960 hc        1 MOL      0.010189
     31 H11        -1.0610    5.6600    3.0850 hc        1 MOL      0.010189
     32 H12        -0.7470    5.5480    0.7900 hc        1 MOL     -0.125205
     33 H13        -0.1990    3.8160    0.7560 hc        1 MOL     -0.125205
     34 H14         1.6630    4.6200    2.2440 hc        1 MOL      0.057310
     35 H15         1.1320    6.2930    1.8150 hc        1 MOL      0.057310
     36 H16         2.0200    4.0850   -0.0720 hx        1 MOL      0.103021
     37 H17         3.1590    5.0600    0.7240 hx        1 MOL      0.103021
     38 H18         2.4910    5.9890   -1.6080 hn        1 MOL      0.330196
     39 H19         1.0930    6.3560   -0.8530 hn        1 MOL      0.330196
     40 H20         2.4000    7.1170   -0.4450 hn        1 MOL      0.330196
     41 N4         -3.5540    4.0230    0.4540 n         1 MOL     -0.236476
     42 C13        -4.4380    4.5410   -0.6060 c3        1 MOL      0.279376
     43 C14        -5.6670    3.6920   -0.7280 c         1 MOL      0.472715
     44 O6         -6.4350    3.9010   -1.6550 o         1 MOL     -0.551349
     45 C15        -3.5560    4.8610   -1.8570 c3        1 MOL     -0.284805
     46 C16        -2.5610    3.7670   -2.1990 c         1 MOL      0.871616
     47 O7         -1.8320    3.9350   -3.2160 o         1 MOL     -0.748037
     48 O8         -2.4890    2.7110   -1.5800 o         1 MOL     -0.748037
     49 H21        -3.0130    3.2390    0.1330 hn        1 MOL     -0.003948
     50 H22        -4.8560    5.5030   -0.3160 h1        1 MOL      0.030111
     51 H23        -2.9210    5.6890   -1.5600 hc        1 MOL      0.054447
     52 H24        -4.1570    5.1000   -2.7370 hc        1 MOL      0.054447
     53 N5         -5.9220    2.7590    0.1840 n         1 MOL     -0.414678
     54 C17        -7.2210    2.1360    0.2650 c3        1 MOL     -0.045054
     55 C18        -7.5740    1.0460   -0.8180 c         1 MOL      0.468830
     56 O9         -8.7100    0.7620   -1.0330 o         1 MOL     -0.559912
     57 H25        -5.2490    2.4530    0.8550 hn        1 MOL      0.268024
     58 H26        -8.0410    2.8590    0.2700 h1        1 MOL      0.085305
     59 H27        -7.4610    1.6320    1.2050 h1        1 MOL      0.085305
     60 N6         -6.5580    0.5090   -1.4920 n         1 MOL     -0.183427
     61 C19        -6.7280   -0.5830   -2.5040 c3        1 MOL     -0.071013
     62 C20        -6.9290   -1.9470   -1.8430 c         1 MOL      0.446094
     63 O10        -7.1550   -2.9380   -2.4880 o         1 MOL     -0.527655
     64 C21        -5.6510   -0.5790   -3.5320 c3        1 MOL     -0.182855
     65 C22        -4.3190   -0.4530   -2.9240 c         1 MOL      0.643995
     66 O11        -3.4430    0.2720   -3.4770 o         1 MOL     -0.644414
     67 O12        -4.0940   -1.0900   -1.8280 o         1 MOL     -0.644414
     68 H28        -5.6270    0.7560   -1.1830 hn        1 MOL      0.200518
     69 H29        -7.6390   -0.3700   -3.0480 h1        1 MOL      0.129966
     70 H30        -5.8080    0.2890   -4.1810 hc        1 MOL      0.073232
     71 H31        -5.7330   -1.4970   -4.1110 hc        1 MOL      0.073232
     72 N7         -6.7390   -1.9990   -0.5440 n         1 MOL     -0.183062
     73 C23        -6.8440   -3.1780    0.3250 c3        1 MOL     -0.222634
     74 C24        -5.6140   -4.1100    0.3330 c         1 MOL      0.476958
     75 O13        -5.6740   -5.3290    0.5600 o         1 MOL     -0.541047
     76 H32        -6.3840   -1.1970   -0.0540 hn        1 MOL      0.218070
     77 H33        -7.6870   -3.7800    0.0180 h1        1 MOL      0.124244
     78 H34        -7.0960   -2.7780    1.3090 h1        1 MOL      0.124244
     79 N8         -4.4720   -3.5570   -0.0640 n         1 MOL     -0.054130
     80 C25        -3.2200   -4.3050   -0.3140 c3        1 MOL     -0.376700
     81 C26        -1.9150   -3.4110   -0.1300 c         1 MOL      0.850901
     82 O14        -1.9200   -2.1920   -0.1020 o         1 MOL     -0.708947
     83 C27        -3.1750   -4.6490   -1.7940 c3        1 MOL      0.524806
     84 C28        -4.1590   -5.6930   -2.1030 c3        1 MOL     -0.539013
     85 O15        -3.4710   -3.4790   -2.5710 oh        1 MOL     -0.579812
     86 H35        -4.4700   -2.5820   -0.3220 hn        1 MOL      0.043905
     87 H36        -3.1500   -5.1680    0.3580 h1        1 MOL      0.140267
     88 H37        -2.2000   -5.0270   -2.0840 h1        1 MOL     -0.021122
     89 H38        -3.8810   -2.8560   -1.9680 ho        1 MOL      0.368130
     90 H39        -5.1400   -5.2060   -2.1800 hc        1 MOL      0.139148
     91 H40        -3.9800   -6.1800   -3.0560 hc        1 MOL      0.139148
     92 H41        -4.1680   -6.4050   -1.2710 hc        1 MOL      0.139148
     93 N9         -0.7870   -4.1170    0.1410 n         1 MOL     -0.720461
     94 C29         0.5360   -3.6090    0.4680 c3        1 MOL      0.199379
     95 C30         1.5410   -3.6990   -0.6870 c         1 MOL      0.475894
     96 O16         1.6970   -4.6690   -1.4330 o         1 MOL     -0.575559
     97 C31         0.9200   -4.2770    1.8220 c3        1 MOL     -0.009881
     98 C32         0.0450   -3.5550    2.9390 c3        1 MOL      0.161518
     99 C33         2.4070   -4.1970    2.2350 c3        1 MOL     -0.302298
    100 C34         0.3930   -4.1760    4.3020 c3        1 MOL     -0.231232
    101 H42        -0.9460   -5.1120    0.2110 hn        1 MOL      0.313379
    102 H43         0.4320   -2.5430    0.6840 h1        1 MOL      0.081428
    103 H44         0.6260   -5.3200    1.7400 hc        1 MOL      0.056436
    104 H45        -0.9990   -3.8510    2.8230 hc        1 MOL     -0.015347
    105 H46         0.1690   -2.4780    2.9610 hc        1 MOL     -0.015347
    106 H47         2.6420   -3.2790    2.7670 hc        1 MOL      0.065340
    107 H48         2.6740   -4.9810    2.9500 hc        1 MOL      0.065340
    108 H49         3.1130   -4.1130    1.4120 hc        1 MOL      0.065340
    109 H50         0.5450   -5.2480    4.2360 hc        1 MOL      0.051605
    110 H51         1.3040   -3.7150    4.6800 hc        1 MOL      0.051605
    111 H52        -0.4130   -3.9840    5.0160 hc        1 MOL      0.051605
    112 N10         2.1820   -2.6180   -0.9240 n         1 MOL      0.092314
    113 C35         3.2630   -2.4320   -1.8900 c3        1 MOL     -0.212377
    114 C36         4.6250   -2.4120   -1.2140 c         1 MOL      0.449068
    115 O17         4.6890   -2.2070   -0.0230 o         1 MOL     -0.315321
    116 C37         3.1430   -1.1570   -2.8280 c3        1 MOL      0.529501
    117 C38         2.1710   -1.3110   -3.9390 c3        1 MOL     -0.565831
    118 O18         2.7840   -0.0930   -2.0540 oh        1 MOL     -0.634246
    119 H53         1.9500   -1.7690   -0.4380 hn        1 MOL     -0.152293
    120 H54         3.3300   -3.2630   -2.5850 h1        1 MOL      0.067731
    121 H55         4.1460   -1.0210   -3.2100 h1        1 MOL     -0.085895
    122 H56         1.9910   -0.3660   -1.5840 ho        1 MOL      0.349791
    123 H57         1.3860   -1.9880   -3.5930 hc        1 MOL      0.150684
    124 H58         1.7890   -0.3310   -4.2350 hc        1 MOL      0.150684
    125 H59         2.6540   -1.6330   -4.8680 hc        1 MOL      0.150684
    126 N11         5.7810   -2.5090   -1.8870 n         1 MOL     -0.274767
    127 C39         7.1220   -2.3750   -1.2860 c3        1 MOL     -0.422141
    128 C40         7.4210   -1.1050   -0.4090 c         1 MOL      0.632708
    129 O19         7.9210   -1.4040    0.6950 o         1 MOL     -0.474326
    130 C41         8.1420   -2.5390   -2.3980 c3        1 MOL      0.412305
    131 C42         9.5910   -2.7620   -1.8970 c3        1 MOL     -0.424754
    132 O20         7.7980   -3.6970   -3.1750 oh        1 MOL     -0.569420
    133 H60         5.8230   -2.7790   -2.8560 hn        1 MOL      0.228852
    134 H61         7.3430   -3.2610   -0.6770 h1        1 MOL      0.210589
    135 H62         8.1780   -1.6830   -3.0720 h1        1 MOL     -0.034090
    136 H63         7.1870   -3.5120   -3.8940 ho        1 MOL      0.377585
    137 H64        10.2880   -3.0390   -2.6760 hc        1 MOL      0.131076
    138 H65         9.9490   -1.9110   -1.3190 hc        1 MOL      0.131076
    139 H66         9.7380   -3.5840   -1.1940 hc        1 MOL      0.131076
    140 N12         6.9770    0.1380   -0.7830 n         1 MOL     -0.652035
    141 C43         6.9650    1.3030    0.1160 c3        1 MOL      0.112032
    142 C44         6.1800    1.1040    1.3900 c         1 MOL      0.241938
    143 O21         6.4980    1.7290    2.4220 o         1 MOL     -0.500732
    144 C45         6.5770    2.5630   -0.5710 c3        1 MOL     -0.067205
    145 C46         7.4940    2.9840   -1.6750 c3        1 MOL      0.081333
    146 C47         6.9950    4.3260   -2.3090 c3        1 MOL     -0.022458
    147 C48         8.0000    4.7790   -3.3640 c3        1 MOL     -0.083735
    148 N13         7.6730    6.1170   -3.8880 n4        1 MOL     -0.016112
    149 H67         6.6260    0.3480   -1.7090 hn        1 MOL      0.375904
    150 H68         7.9680    1.5950    0.4140 h1        1 MOL      0.079687
    151 H69         6.5620    3.3770    0.1570 hc        1 MOL      0.023968
    152 H70         5.5340    2.4720   -0.8790 hc        1 MOL      0.023968
    153 H71         7.4810    2.2060   -2.4370 hc        1 MOL      0.011957
    154 H72         8.4930    3.1480   -1.2680 hc        1 MOL      0.011957
    155 H73         6.8550    5.0550   -1.5130 hc        1 MOL      0.024901
    156 H74         6.1300    4.1580   -2.9450 hc        1 MOL      0.024901
    157 H75         7.9640    4.0270   -4.1530 hx        1 MOL      0.097893
    158 H76         8.9570    4.8510   -2.8510 hx        1 MOL      0.097893
    159 H77         7.8920    6.9090   -3.2990 hn        1 MOL      0.213126
    160 H78         8.0630    6.2600   -4.8100 hn        1 MOL      0.213126
    161 H79         6.6820    6.1890   -4.0410 hn        1 MOL      0.213126
    162 N14         5.0970    0.3860    1.3090 n         1 MOL     -0.003902
    163 C49         4.0610    0.1270    2.4260 c3        1 MOL     -0.292219
    164 C50         4.5860   -0.8980    3.4850 c         1 MOL      0.510675
    165 O22         4.3480   -0.7490    4.6820 o         1 MOL     -0.520736
    166 C51         2.7170   -0.1790    1.7760 c3        1 MOL      0.254814
    167 C52         2.0920    1.0840    1.1180 c3        1 MOL      0.162845
    168 C53         0.7310    0.7970    0.3160 c         1 MOL      0.468325
    169 O23        -0.2500    1.5300    0.5370 o         1 MOL     -0.489296
    170 O24         0.6380   -0.2750   -0.3700 o         1 MOL     -0.489296
    171 H80         4.9120   -0.1060    0.4420 hn        1 MOL      0.192912
    172 H81         3.8950    0.9940    3.0700 h1        1 MOL      0.144569
    173 H82         1.9800   -0.6150    2.4460 hc        1 MOL     -0.040390
    174 H83         2.8200   -0.8800    0.9530 hc        1 MOL     -0.040390
    175 H84         2.8690    1.4500    0.4430 hc        1 MOL     -0.079687
    176 H85         1.9340    1.8930    1.8300 hc        1 MOL     -0.079687
    177 N15         5.3090   -1.9140    2.9810 n         1 MOL     -0.042523
    178 C54         5.9300   -2.9600    3.6890 c3        1 MOL     -0.377949
    179 H86         5.2680   -3.3010    4.4850 h1        1 MOL      0.128173
    180 H87         6.1350   -3.7880    3.0100 h1        1 MOL      0.128173
    181 H88         6.8650   -2.6030    4.1210 h1        1 MOL      0.128173
    182 H89         5.3370   -2.0080    1.9760 hn        1 MOL      0.116313
    183 Ca1        -1.7640    0.1970   -1.1900 Ca        1 MOL      1.697289
    184 O25        -1.2270   -1.8070   -3.0230 oh        1 MOL     -0.887455
    185 H90        -0.7590   -1.9550   -3.8520 ho        1 MOL      0.399098
    186 H91        -2.0550   -2.2830   -3.1360 ho        1 MOL      0.399098
    187 O26        -0.1530    1.6890   -2.8520 oh        1 MOL     -0.887455
    188 H92        -0.5590    2.5550   -2.9210 ho        1 MOL      0.399098
    189 H93         0.2700    1.5610   -3.7010 ho        1 MOL      0.399098
@<TRIPOS>BOND
     1    1    2 1   
     2    1    4 1   
     3    1    5 1   
     4    1    6 1   
     5    2    3 2   
     6    2    7 1   
     7    7    8 1   
     8    7   15 1   
     9    8    9 1   
    10    8   11 1   
    11    8   16 1   
    12    9   10 2   
    13    9   19 1   
    14   11   12 1   
    15   11   17 1   
    16   11   18 1   
    17   12   13 1   
    18   12   14 1   
    19   19   20 1   
    20   19   28 1   
    21   20   21 1   
    22   20   23 1   
    23   20   29 1   
    24   21   22 2   
    25   21   41 1   
    26   23   24 1   
    27   23   30 1   
    28   23   31 1   
    29   24   25 1   
    30   24   32 1   
    31   24   33 1   
    32   25   26 1   
    33   25   34 1   
    34   25   35 1   
    35   26   27 1   
    36   26   36 1   
    37   26   37 1   
    38   27   38 1   
    39   27   39 1   
    40   27   40 1   
    41   41   42 1   
    42   41   49 1   
    43   42   43 1   
    44   42   45 1   
    45   42   50 1   
    46   43   44 2   
    47   43   53 1   
    48   45   46 1   
    49   45   51 1   
    50   45   52 1   
    51   46   47 1   
    52   46   48 1   
    53   53   54 1   
    54   53   57 1   
    55   54   55 1   
    56   54   58 1   
    57   54   59 1   
    58   55   56 2   
    59   55   60 1   
    60   60   61 1   
    61   60   68 1   
    62   61   62 1   
    63   61   64 1   
    64   61   69 1   
    65   62   63 2   
    66   62   72 1   
    67   64   65 1   
    68   64   70 1   
    69   64   71 1   
    70   65   66 1   
    71   65   67 1   
    72   72   73 1   
    73   72   76 1   
    74   73   74 1   
    75   73   77 1   
    76   73   78 1   
    77   74   75 2   
    78   74   79 1   
    79   79   80 1   
    80   79   86 1   
    81   80   81 1   
    82   80   83 1   
    83   80   87 1   
    84   81   82 2   
    85   81   93 1   
    86   83   84 1   
    87   83   85 1   
    88   83   88 1   
    89   84   90 1   
    90   84   91 1   
    91   84   92 1   
    92   85   89 1   
    93   93   94 1   
    94   93  101 1   
    95   94   95 1   
    96   94   97 1   
    97   94  102 1   
    98   95   96 2   
    99   95  112 1   
   100   97   98 1   
   101   97   99 1   
   102   97  103 1   
   103   98  100 1   
   104   98  104 1   
   105   98  105 1   
   106   99  106 1   
   107   99  107 1   
   108   99  108 1   
   109  100  109 1   
   110  100  110 1   
   111  100  111 1   
   112  112  113 1   
   113  112  119 1   
   114  113  114 1   
   115  113  116 1   
   116  113  120 1   
   117  114  115 2   
   118  114  126 1   
   119  116  117 1   
   120  116  118 1   
   121  116  121 1   
   122  117  123 1   
   123  117  124 1   
   124  117  125 1   
   125  118  122 1   
   126  126  127 1   
   127  126  133 1   
   128  127  128 1   
   129  127  130 1   
   130  127  134 1   
   131  128  129 2   
   132  128  140 1   
   133  130  131 1   
   134  130  132 1   
   135  130  135 1   
   136  131  137 1   
   137  131  138 1   
   138  131  139 1   
   139  132  136 1   
   140  140  141 1   
   141  140  149 1   
   142  141  142 1   
   143  141  144 1   
   144  141  150 1   
   145  142  143 2   
   146  142  162 1   
   147  144  145 1   
   148  144  151 1   
   149  144  152 1   
   150  145  146 1   
   151  145  153 1   
   152  145  154 1   
   153  146  147 1   
   154  146  155 1   
   155  146  156 1   
   156  147  148 1   
   157  147  157 1   
   158  147  158 1   
   159  148  159 1   
   160  148  160 1   
   161  148  161 1   
   162  162  163 1   
   163  162  171 1   
   164  163  164 1   
   165  163  166 1   
   166  163  172 1   
   167  164  165 2   
   168  164  177 1   
   169  166  167 1   
   170  166  173 1   
   171  166  174 1   
   172  167  168 1   
   173  167  175 1   
   174  167  176 1   
   175  168  169 1   
   176  168  170 1   
   177  177  178 1   
   178  177  182 1   
   179  178  179 1   
   180  178  180 1   
   181  178  181 1   
   182  184  185 1   
   183  184  186 1   
   184  187  188 1   
   185  187  189 1   
@<TRIPOS>SUBSTRUCTURE
     1 MOL         1 TEMP              0 ****  ****    0 ROOT
