@<TRIPOS>MOLECULE
MOL
  182   178     1     0     0
SMALL
resp


@<TRIPOS>ATOM
      1 C1         -0.9210   -3.7070    5.9750 c3        1 MOL     -0.286674
      2 C2         -0.7920   -3.0380    4.5760 c         1 MOL      0.677966
      3 O1         -1.7880   -2.9150    3.8770 o         1 MOL     -0.567442
      4 H1          0.0480   -3.6930    6.4740 hc        1 MOL      0.068972
      5 H2         -1.6470   -3.1590    6.5760 hc        1 MOL      0.068972
      6 H3         -1.2520   -4.7390    5.8560 hc        1 MOL      0.068972
      7 N1          0.4580   -2.7800    4.2550 n         1 MOL     -0.479161
      8 C3          0.9390   -2.4150    2.8970 c3        1 MOL     -0.112104
      9 C4          1.1450   -3.6040    2.0040 c         1 MOL      0.619298
     10 O2          1.9900   -4.4440    2.2340 o         1 MOL     -0.535863
     11 C5          2.1610   -1.4660    2.9460 c3        1 MOL     -0.032358
     12 C6          2.7990   -1.0550    1.6980 c         1 MOL      0.433796
     13 O3          2.5010   -1.6040    0.6320 o         1 MOL     -0.630643
     14 O4          3.7230   -0.1890    1.7780 o         1 MOL     -0.630643
     15 H4          1.1830   -3.0650    4.9040 hn        1 MOL      0.311970
     16 H5          0.0820   -1.9940    2.3600 h1        1 MOL      0.023456
     17 H6          2.9740   -1.8150    3.5810 hc        1 MOL      0.062974
     18 H7          1.9460   -0.5860    3.5540 hc        1 MOL      0.062974
     19 N2          0.3260   -3.8140    0.9290 n         1 MOL     -0.257390
     20 C7          0.2280   -5.1710    0.3580 c3        1 MOL     -0.204442
     21 C8          1.4880   -5.6360   -0.3190 c         1 MOL      0.591494
     22 O5          1.6970   -6.8310   -0.4020 o         1 MOL     -0.592586
     23 C9         -0.9260   -5.3450   -0.6460 c3        1 MOL     -0.162256
     24 C10        -2.3590   -5.0400   -0.0420 c3        1 MOL     -0.068500
     25 C11        -3.4850   -5.2250   -1.0600 c3        1 MOL     -0.097706
     26 C12        -3.5020   -6.6820   -1.5590 c3        1 MOL      0.335654
     27 N3         -4.6170   -7.1720   -2.3250 n4        1 MOL     -0.529718
     28 H8         -0.2450   -3.0470    0.6210 hn        1 MOL      0.279953
     29 H9          0.0110   -5.9200    1.1190 h1        1 MOL      0.124565
     30 H10        -0.9080   -6.2470   -1.2530 hc        1 MOL      0.042506
     31 H11        -0.7250   -4.5840   -1.4050 hc        1 MOL      0.042506
     32 H12        -2.3610   -4.0290    0.3720 hc        1 MOL      0.094145
     33 H13        -2.6620   -5.7220    0.7420 hc        1 MOL      0.094145
     34 H14        -3.4420   -4.5800   -1.9420 hc        1 MOL      0.021841
     35 H15        -4.3600   -5.0630   -0.4350 hc        1 MOL      0.021841
     36 H16        -3.2670   -7.3430   -0.7300 hx        1 MOL      0.010209
     37 H17        -2.6900   -6.8040   -2.2760 hx        1 MOL      0.010209
     38 H18        -5.4750   -6.8080   -1.9410 hn        1 MOL      0.361635
     39 H19        -4.4430   -6.9140   -3.2800 hn        1 MOL      0.361635
     40 H20        -4.6260   -8.1750   -2.3550 hn        1 MOL      0.361635
     41 N4          2.3690   -4.7680   -0.8260 n         1 MOL     -0.208862
     42 C13         3.6740   -5.0530   -1.3720 c3        1 MOL      0.060424
     43 C14         4.8310   -4.5400   -0.5800 c         1 MOL      0.349823
     44 O6          5.9940   -4.9340   -0.7740 o         1 MOL     -0.548620
     45 C15         3.7560   -4.4860   -2.7850 c3        1 MOL     -0.234599
     46 C16         3.3340   -3.0060   -3.0710 c         1 MOL      0.763156
     47 O7          3.1200   -2.1690   -2.1210 o         1 MOL     -0.706306
     48 O8          3.2470   -2.6150   -4.2660 o         1 MOL     -0.706306
     49 H21         2.1780   -3.7780   -0.7450 hn        1 MOL      0.119490
     50 H22         3.7500   -6.1360   -1.5170 h1        1 MOL      0.097671
     51 H23         3.1550   -5.0990   -3.4610 hc        1 MOL      0.064581
     52 H24         4.7790   -4.5760   -3.1360 hc        1 MOL      0.064581
     53 N5          4.5880   -3.5980    0.3050 n         1 MOL      0.011625
     54 C17         5.5470   -3.0160    1.2760 c3        1 MOL     -0.001717
     55 C18         6.3790   -1.8580    0.6580 c         1 MOL      0.481717
     56 O9          7.5190   -1.7670    1.1030 o         1 MOL     -0.567142
     57 H25         3.6410   -3.3130    0.4880 hn        1 MOL     -0.014516
     58 H26         6.1950   -3.7850    1.6940 h1        1 MOL      0.061883
     59 H27         5.0000   -2.7690    2.1820 h1        1 MOL      0.061883
     60 N6          5.8500   -1.1530   -0.3360 n         1 MOL     -0.206980
     61 C19         6.5290    0.0000   -1.0220 c3        1 MOL     -0.150612
     62 C20         6.4760    1.2540   -0.1300 c         1 MOL      0.334943
     63 O10         6.9310    2.2940   -0.6240 o         1 MOL     -0.475172
     64 C21         5.8530    0.1310   -2.4180 c3        1 MOL     -0.236423
     65 C22         4.6570    1.0690   -2.3130 c         1 MOL      0.531871
     66 N7          4.6450    2.0450   -3.2510 n         1 MOL     -0.860234
     67 O11         3.7510    0.9430   -1.5470 o         1 MOL     -0.429154
     68 H28         4.9070   -1.3760   -0.6100 hn        1 MOL      0.146651
     69 H29         7.5780   -0.3040   -1.0960 h1        1 MOL      0.161789
     70 H30         5.6080   -0.8320   -2.8590 hc        1 MOL      0.136312
     71 H31         6.6690    0.5700   -2.9820 hc        1 MOL      0.136312
     72 H32         5.5610    2.3120   -3.5890 hn        1 MOL      0.407836
     73 H33         3.9170    2.7210   -3.0380 hn        1 MOL      0.407836
     74 N8          5.9510    1.2240    1.0810 n         1 MOL     -0.127407
     75 C23         6.0240    2.3400    2.0230 c3        1 MOL     -0.258826
     76 C24         4.7180    3.2010    1.9630 c         1 MOL      0.583585
     77 O12         4.6600    4.2570    2.5690 o         1 MOL     -0.573763
     78 H34         5.4270    0.4160    1.3890 hn        1 MOL      0.247976
     79 H35         6.9390    2.8960    1.8180 h1        1 MOL      0.134395
     80 H36         6.0910    1.9340    3.0350 h1        1 MOL      0.134395
     81 N9          3.7210    2.8300    1.2100 n         1 MOL     -0.244479
     82 C25         2.4750    3.6310    1.0130 c3        1 MOL      0.044318
     83 C26         1.2220    2.6960    0.8610 c         1 MOL      0.559326
     84 O13         1.3660    1.6560    0.3040 o         1 MOL     -0.463326
     85 C27         2.6360    4.4400   -0.2190 c3        1 MOL      0.062300
     86 C28         3.8220    5.4230   -0.3520 ca        1 MOL      0.128767
     87 C29         4.9250    5.1320   -1.1890 ca        1 MOL     -0.251983
     88 C30         3.7870    6.6920    0.2220 ca        1 MOL     -0.251983
     89 C31         5.9810    6.0180   -1.3920 ca        1 MOL     -0.186661
     90 C32         4.8470    7.5930    0.1200 ca        1 MOL     -0.186661
     91 C33         5.9830    7.2750   -0.6420 ca        1 MOL      0.278828
     92 O14         7.0930    8.0510   -0.6890 oh        1 MOL     -0.457561
     93 H37         3.6830    1.8790    0.8740 hn        1 MOL      0.121027
     94 H38         2.3020    4.3620    1.8120 h1        1 MOL      0.030507
     95 H39         1.7100    5.0110   -0.3440 hc        1 MOL     -0.046689
     96 H40         2.7900    3.6780   -0.9730 hc        1 MOL     -0.046689
     97 H41         4.9430    4.1260   -1.5970 ha        1 MOL      0.144082
     98 H42         2.9390    6.9460    0.8360 ha        1 MOL      0.144082
     99 H43         6.7750    5.7600   -2.0670 ha        1 MOL      0.131720
    100 H44         4.7550    8.5160    0.6650 ha        1 MOL      0.131720
    101 H45         7.0100    8.7470   -0.0410 ho        1 MOL      0.355279
    102 N10         0.0370    3.1040    1.3760 n         1 MOL     -0.611652
    103 C34        -1.2470    2.3630    1.3600 c3        1 MOL      0.101394
    104 C35        -2.2910    3.3660    0.7600 c         1 MOL      0.532442
    105 O15        -2.4070    4.5010    1.3160 o         1 MOL     -0.538631
    106 C36        -1.6040    1.9780    2.7990 c3        1 MOL     -0.066069
    107 C37        -0.7080    0.8530    3.3300 c3        1 MOL      0.124784
    108 C38        -3.0220    1.3250    2.7800 c3        1 MOL     -0.274234
    109 C39        -1.0330    0.4930    4.8190 c3        1 MOL     -0.426631
    110 H46         0.0660    4.0390    1.7500 hn        1 MOL      0.349673
    111 H47        -1.2480    1.4490    0.7820 h1        1 MOL      0.011439
    112 H48        -1.4720    2.8290    3.4590 hc        1 MOL      0.064987
    113 H49         0.3410    1.0700    3.1650 hc        1 MOL      0.047666
    114 H50        -0.8290   -0.0580    2.7270 hc        1 MOL      0.047666
    115 H51        -3.0230    0.3270    2.3640 hc        1 MOL      0.092480
    116 H52        -3.3550    1.1650    3.8110 hc        1 MOL      0.092480
    117 H53        -3.7810    1.9210    2.2670 hc        1 MOL      0.092480
    118 H54        -1.2160    1.4030    5.4000 hc        1 MOL      0.102909
    119 H55        -1.9330   -0.1200    4.8870 hc        1 MOL      0.102909
    120 H56        -0.1650   -0.0250    5.2100 hc        1 MOL      0.102909
    121 N11        -3.0740    3.0110   -0.2730 n         1 MOL     -0.355729
    122 C40        -4.2380    3.7580   -0.7620 c3        1 MOL      0.001700
    123 C41        -5.4800    3.3740   -0.0140 c         1 MOL      0.481404
    124 O16        -5.6060    2.2630    0.4940 o         1 MOL     -0.336941
    125 C42        -4.4850    3.4930   -2.2380 c3        1 MOL      0.060597
    126 O17        -4.6750    2.1790   -2.5850 oh        1 MOL     -0.470391
    127 H57        -2.8790    2.2250   -0.8700 hn        1 MOL      0.284292
    128 H58        -4.1220    4.8450   -0.6970 h1        1 MOL      0.069923
    129 H59        -3.6300    3.8830   -2.7980 h1        1 MOL      0.029921
    130 H60        -5.3440    4.0720   -2.5630 h1        1 MOL      0.029921
    131 H61        -4.9160    2.1280   -3.5040 ho        1 MOL      0.405727
    132 N12        -6.5050    4.1430   -0.2130 n         1 MOL     -0.508825
    133 C43        -7.8070    3.8440    0.3450 c3        1 MOL      0.223378
    134 C44        -8.4540    2.5690   -0.2220 c         1 MOL      0.392526
    135 O18        -9.1960    1.8550    0.4960 o         1 MOL     -0.487829
    136 C45        -8.6870    5.0700    0.1870 c3        1 MOL     -0.339042
    137 H62        -6.3880    4.9460   -0.8260 hn        1 MOL      0.310330
    138 H63        -7.6800    3.6630    1.4080 h1        1 MOL      0.059252
    139 H64        -9.5760    4.8580    0.7810 hc        1 MOL      0.099720
    140 H65        -8.2140    6.0030    0.4970 hc        1 MOL      0.099720
    141 H66        -8.8660    5.1570   -0.8800 hc        1 MOL      0.099720
    142 N13        -8.1420    2.3260   -1.4770 n         1 MOL     -0.381977
    143 C46        -8.4350    1.0250   -2.1220 c3        1 MOL      0.144012
    144 C47        -7.5420   -0.1050   -1.5780 c         1 MOL      0.257178
    145 O19        -8.0540   -1.2260   -1.3570 o         1 MOL     -0.510490
    146 C48        -8.3180    1.2620   -3.6540 c3        1 MOL     -0.239804
    147 H67        -7.7290    3.0120   -2.0860 hn        1 MOL      0.278524
    148 H68        -9.4690    0.7730   -1.8980 h1        1 MOL      0.101423
    149 H69        -8.4720    0.3550   -4.2400 hc        1 MOL      0.066922
    150 H70        -9.0810    1.9460   -4.0000 hc        1 MOL      0.066922
    151 H71        -7.3250    1.6810   -3.8190 hc        1 MOL      0.066922
    152 N14        -6.3060    0.1110   -1.1710 n         1 MOL      0.054645
    153 C49        -5.5260   -0.9280   -0.5290 c3        1 MOL     -0.073195
    154 C50        -5.8910   -1.2030    0.9460 c         1 MOL      0.404919
    155 O20        -5.8360   -2.3820    1.3970 o         1 MOL     -0.542763
    156 C51        -4.0470   -0.4900   -0.6780 c3        1 MOL      0.096617
    157 C52        -2.9900   -1.5170   -0.6710 c3        1 MOL     -0.026471
    158 C53        -1.5910   -0.9250   -0.6730 c         1 MOL      0.706562
    159 O21        -0.7600   -1.2290    0.1790 o         1 MOL     -0.739995
    160 O22        -1.2460   -0.2550   -1.6560 o         1 MOL     -0.739995
    161 H72        -5.8420    0.9390   -1.5230 hn        1 MOL      0.013711
    162 H73        -5.7250   -1.8700   -1.0300 h1        1 MOL      0.036705
    163 H74        -3.8400    0.2490    0.1010 hc        1 MOL     -0.059535
    164 H75        -3.9320    0.1020   -1.5730 hc        1 MOL     -0.059535
    165 H76        -3.1750   -2.1260   -1.5560 hc        1 MOL      0.023621
    166 H77        -3.0680   -2.0760    0.2690 hc        1 MOL      0.023621
    167 N15        -6.2830   -0.2030    1.6810 n         1 MOL     -0.077256
    168 C54        -6.5620   -0.2970    3.1170 c3        1 MOL     -0.064705
    169 H78        -7.6100   -0.0580    3.3000 h1        1 MOL      0.052796
    170 H79        -6.3550   -1.3100    3.4620 h1        1 MOL      0.052796
    171 H80        -5.9300    0.4080    3.6570 h1        1 MOL      0.052796
    172 H81        -6.2430    0.7510    1.3540 hn        1 MOL      0.094071
    173 Ca1         1.4520   -0.3100   -1.2930 Ca        1 MOL      1.797603
    174 O23         0.2510   -2.6800   -2.7540 oh        1 MOL     -0.844186
    175 H82        -0.2980   -2.2440   -3.4030 ho        1 MOL      0.400280
    176 H83         0.2770   -3.5960   -3.0300 ho        1 MOL      0.400280
    177 O24         0.6770    1.9040   -2.6230 oh        1 MOL     -0.844186
    178 H84         0.5010    2.7930   -2.3150 ho        1 MOL      0.400280
    179 H85         0.6470    1.9700   -3.5720 ho        1 MOL      0.400280
    180 O25         1.8660   -0.3970   -4.0220 oh        1 MOL     -0.844186
    181 H86         2.3740   -1.2070   -4.1130 ho        1 MOL      0.400280
    182 H87         1.7290   -0.1010   -4.9230 ho        1 MOL      0.400280
@<TRIPOS>BOND
     1    1    2 1   
     2    1    4 1   
     3    1    5 1   
     4    1    6 1   
     5    2    3 2   
     6    2    7 1   
     7    7    8 1   
     8    7   15 1   
     9    8    9 1   
    10    8   11 1   
    11    8   16 1   
    12    9   10 2   
    13    9   19 1   
    14   11   12 1   
    15   11   17 1   
    16   11   18 1   
    17   12   13 1   
    18   12   14 1   
    19   19   20 1   
    20   19   28 1   
    21   20   21 1   
    22   20   23 1   
    23   20   29 1   
    24   21   22 2   
    25   21   41 1   
    26   23   24 1   
    27   23   30 1   
    28   23   31 1   
    29   24   25 1   
    30   24   32 1   
    31   24   33 1   
    32   25   26 1   
    33   25   34 1   
    34   25   35 1   
    35   26   27 1   
    36   26   36 1   
    37   26   37 1   
    38   27   38 1   
    39   27   39 1   
    40   27   40 1   
    41   41   42 1   
    42   41   49 1   
    43   42   43 1   
    44   42   45 1   
    45   42   50 1   
    46   43   44 2   
    47   43   53 1   
    48   45   46 1   
    49   45   51 1   
    50   45   52 1   
    51   46   47 1   
    52   46   48 1   
    53   53   54 1   
    54   53   57 1   
    55   54   55 1   
    56   54   58 1   
    57   54   59 1   
    58   55   56 2   
    59   55   60 1   
    60   60   61 1   
    61   60   68 1   
    62   61   62 1   
    63   61   64 1   
    64   61   69 1   
    65   62   63 2   
    66   62   74 1   
    67   64   65 1   
    68   64   70 1   
    69   64   71 1   
    70   65   66 1   
    71   65   67 2   
    72   66   72 1   
    73   66   73 1   
    74   74   75 1   
    75   74   78 1   
    76   75   76 1   
    77   75   79 1   
    78   75   80 1   
    79   76   77 2   
    80   76   81 1   
    81   81   82 1   
    82   81   93 1   
    83   82   83 1   
    84   82   85 1   
    85   82   94 1   
    86   83   84 2   
    87   83  102 1   
    88   85   86 1   
    89   85   95 1   
    90   85   96 1   
    91   86   87 ar  
    92   86   88 ar  
    93   87   89 ar  
    94   87   97 1   
    95   88   90 ar  
    96   88   98 1   
    97   89   91 ar  
    98   89   99 1   
    99   90   91 ar  
   100   90  100 1   
   101   91   92 1   
   102   92  101 1   
   103  102  103 1   
   104  102  110 1   
   105  103  104 1   
   106  103  106 1   
   107  103  111 1   
   108  104  105 2   
   109  104  121 1   
   110  106  107 1   
   111  106  108 1   
   112  106  112 1   
   113  107  109 1   
   114  107  113 1   
   115  107  114 1   
   116  108  115 1   
   117  108  116 1   
   118  108  117 1   
   119  109  118 1   
   120  109  119 1   
   121  109  120 1   
   122  121  122 1   
   123  121  127 1   
   124  122  123 1   
   125  122  125 1   
   126  122  128 1   
   127  123  124 2   
   128  123  132 1   
   129  125  126 1   
   130  125  129 1   
   131  125  130 1   
   132  126  131 1   
   133  132  133 1   
   134  132  137 1   
   135  133  134 1   
   136  133  136 1   
   137  133  138 1   
   138  134  135 2   
   139  134  142 1   
   140  136  139 1   
   141  136  140 1   
   142  136  141 1   
   143  142  143 1   
   144  142  147 1   
   145  143  144 1   
   146  143  146 1   
   147  143  148 1   
   148  144  145 2   
   149  144  152 1   
   150  146  149 1   
   151  146  150 1   
   152  146  151 1   
   153  152  153 1   
   154  152  161 1   
   155  153  154 1   
   156  153  156 1   
   157  153  162 1   
   158  154  155 2   
   159  154  167 1   
   160  156  157 1   
   161  156  163 1   
   162  156  164 1   
   163  157  158 1   
   164  157  165 1   
   165  157  166 1   
   166  158  159 1   
   167  158  160 1   
   168  167  168 1   
   169  167  172 1   
   170  168  169 1   
   171  168  170 1   
   172  168  171 1   
   173  174  175 1   
   174  174  176 1   
   175  177  178 1   
   176  177  179 1   
   177  180  181 1   
   178  180  182 1   
@<TRIPOS>SUBSTRUCTURE
     1 MOL         1 TEMP              0 ****  ****    0 ROOT
