@<TRIPOS>MOLECULE
MOL
  182   178     1     0     0
SMALL
resp


@<TRIPOS>ATOM
      1 C1         -1.1950   -2.5220    6.3080 c3        1 MOL     -0.304847
      2 C2         -0.8370   -2.4210    4.8000 c         1 MOL      0.691448
      3 O1         -1.7500   -2.6060    3.9340 o         1 MOL     -0.605830
      4 H1         -1.5360   -3.5320    6.5330 hc        1 MOL      0.080869
      5 H2         -0.3130   -2.2960    6.9070 hc        1 MOL      0.080869
      6 H3         -1.9860   -1.8110    6.5430 hc        1 MOL      0.080869
      7 N1          0.4250   -2.0860    4.4620 n         1 MOL     -0.583152
      8 C3          0.9960   -1.8890    3.0680 c3        1 MOL     -0.027715
      9 C4          1.2640   -3.2900    2.4030 c         1 MOL      0.604594
     10 O2          2.1490   -4.0380    2.8620 o         1 MOL     -0.528653
     11 C5          2.3080   -1.1990    3.2080 c3        1 MOL     -0.011238
     12 C6          2.9910   -0.9200    1.7890 c         1 MOL      0.694827
     13 O3          2.5460   -1.3000    0.6890 o         1 MOL     -0.724406
     14 O4          4.0430   -0.2520    1.8910 o         1 MOL     -0.724406
     15 H4          1.0370   -1.8280    5.2210 hn        1 MOL      0.326869
     16 H5          0.2890   -1.2900    2.4930 h1        1 MOL     -0.017452
     17 H6          2.9890   -1.8590    3.7400 hc        1 MOL      0.030863
     18 H7          2.2830   -0.3140    3.8460 hc        1 MOL      0.030863
     19 N2          0.4240   -3.5980    1.3940 n         1 MOL     -0.267331
     20 C7          0.3200   -4.9400    0.8060 c3        1 MOL     -0.373963
     21 C8          1.5240   -5.5750    0.1250 c         1 MOL      0.636982
     22 O5          1.5530   -6.7590   -0.1850 o         1 MOL     -0.594584
     23 C9         -0.8730   -4.9340   -0.1920 c3        1 MOL      0.285085
     24 C10        -1.4990   -6.1670   -0.7100 c3        1 MOL     -0.121460
     25 C11        -2.9360   -5.8320   -1.1590 c3        1 MOL      0.062868
     26 C12        -3.5270   -7.0290   -2.0010 c3        1 MOL     -0.035298
     27 N3         -4.9110   -6.7510   -2.5000 n4        1 MOL     -0.273696
     28 H8         -0.2320   -2.9090    1.0770 hn        1 MOL      0.286507
     29 H9         -0.0330   -5.5440    1.6480 h1        1 MOL      0.152177
     30 H10        -0.4390   -4.4190   -1.0490 hc        1 MOL     -0.004595
     31 H11        -1.6680   -4.2980    0.2110 hc        1 MOL     -0.004595
     32 H12        -1.5640   -7.0190   -0.0260 hc        1 MOL      0.025319
     33 H13        -0.9300   -6.3450   -1.6190 hc        1 MOL      0.025319
     34 H14        -2.9210   -4.9670   -1.8290 hc        1 MOL      0.036395
     35 H15        -3.5800   -5.6670   -0.3030 hc        1 MOL      0.036395
     36 H16        -3.6700   -7.8720   -1.3130 hx        1 MOL      0.099290
     37 H17        -2.9430   -7.3120   -2.8690 hx        1 MOL      0.099290
     38 H18        -5.2960   -7.6160   -2.8460 hn        1 MOL      0.301481
     39 H19        -5.4760   -6.4790   -1.7020 hn        1 MOL      0.301481
     40 H20        -4.9930   -5.9870   -3.1580 hn        1 MOL      0.301481
     41 N4          2.4670   -4.7500   -0.3740 n         1 MOL     -0.260674
     42 C13         3.6990   -5.1430   -0.9950 c3        1 MOL     -0.034204
     43 C14         4.9610   -4.5270   -0.3690 c         1 MOL      0.381484
     44 O6          6.0560   -4.6890   -0.8600 o         1 MOL     -0.503968
     45 C15         3.5830   -4.7990   -2.4590 c3        1 MOL     -0.060207
     46 C16         3.3740   -3.3700   -2.7980 c         1 MOL      0.781205
     47 O7          3.4880   -3.0950   -4.0090 o         1 MOL     -0.751236
     48 O8          3.0920   -2.4880   -1.9480 o         1 MOL     -0.751236
     49 H21         2.2750   -3.7870   -0.1280 hn        1 MOL      0.057498
     50 H22         3.8340   -6.2160   -0.8910 h1        1 MOL      0.116691
     51 H23         2.8020   -5.3840   -2.9420 hc        1 MOL      0.027050
     52 H24         4.4680   -5.2700   -2.8870 hc        1 MOL      0.027050
     53 N5          4.7660   -3.6600    0.6200 n         1 MOL      0.028451
     54 C17         5.8060   -3.0920    1.4770 c3        1 MOL     -0.307763
     55 C18         6.6600   -2.0490    0.8160 c         1 MOL      0.555617
     56 O9          7.9010   -2.0290    0.9060 o         1 MOL     -0.554511
     57 H25         3.8140   -3.5170    0.9220 hn        1 MOL      0.047691
     58 H26         6.4680   -3.9260    1.7310 h1        1 MOL      0.130414
     59 H27         5.3960   -2.5630    2.3360 h1        1 MOL      0.130414
     60 N6          5.9980   -1.1540    0.0670 n         1 MOL     -0.309197
     61 C19         6.6620   -0.1310   -0.7680 c3        1 MOL      0.042587
     62 C20         6.7980    1.2170    0.0350 c         1 MOL      0.460336
     63 O10         7.7490    1.9330   -0.1330 o         1 MOL     -0.545697
     64 C21         5.8430   -0.0690   -2.0770 c3        1 MOL     -0.040003
     65 C22         4.4900    0.7640   -2.0900 c         1 MOL      0.310356
     66 N7          4.2540    1.6760   -3.0150 n         1 MOL     -0.509186
     67 O11         3.6300    0.6760   -1.2020 o         1 MOL     -0.479678
     68 H28         4.9900   -1.1500   -0.0200 hn        1 MOL      0.246456
     69 H29         7.7220   -0.3770   -0.9400 h1        1 MOL      0.076474
     70 H30         5.5750   -1.0960   -2.3120 hc        1 MOL      0.058212
     71 H31         6.5380    0.2620   -2.8400 hc        1 MOL      0.058212
     72 H32         4.8620    1.7920   -3.8090 hn        1 MOL      0.297234
     73 H33         3.2790    1.9660   -3.0270 hn        1 MOL      0.297234
     74 N8          5.7980    1.4930    0.9050 n         1 MOL     -0.154153
     75 C23         5.8360    2.6540    1.7730 c3        1 MOL     -0.163432
     76 C24         4.5310    3.4890    1.7840 c         1 MOL      0.586223
     77 O12         4.5380    4.5410    2.4450 o         1 MOL     -0.576752
     78 H34         5.0370    0.8560    1.0630 hn        1 MOL      0.211582
     79 H35         6.6530    3.3540    1.5830 h1        1 MOL      0.094287
     80 H36         5.9730    2.2890    2.7860 h1        1 MOL      0.094287
     81 N9          3.5570    3.0460    0.9790 n         1 MOL     -0.400900
     82 C25         2.2530    3.7120    0.7430 c3        1 MOL      0.333750
     83 C26         1.0770    2.6970    0.8620 c         1 MOL      0.447249
     84 O13         1.2010    1.5730    0.4490 o         1 MOL     -0.567600
     85 C27         2.2570    4.3600   -0.6800 c3        1 MOL      0.055161
     86 C28         3.3200    5.4080   -0.9680 ca        1 MOL     -0.112404
     87 C29         4.5510    5.1110   -1.6150 ca        1 MOL     -0.089102
     88 C30         3.0690    6.7420   -0.5020 ca        1 MOL     -0.089102
     89 C31         5.5220    6.0960   -1.7120 ca        1 MOL     -0.327685
     90 C32         4.0890    7.7050   -0.5990 ca        1 MOL     -0.327685
     91 C33         5.3330    7.3690   -1.1870 ca        1 MOL      0.451036
     92 O14         6.3130    8.2640   -1.3030 oh        1 MOL     -0.505504
     93 H37         3.6160    2.1530    0.5180 hn        1 MOL      0.206029
     94 H38         2.0610    4.4110    1.5500 h1        1 MOL     -0.043429
     95 H39         1.3100    4.8910   -0.7710 hc        1 MOL     -0.016514
     96 H40         2.3050    3.5530   -1.4100 hc        1 MOL     -0.016514
     97 H41         4.7870    4.0860   -1.8660 ha        1 MOL      0.111692
     98 H42         2.0530    6.9650   -0.2120 ha        1 MOL      0.111692
     99 H43         6.4480    5.7690   -2.1600 ha        1 MOL      0.159789
    100 H44         3.9320    8.6850   -0.1860 ha        1 MOL      0.159789
    101 H45         6.1150    9.1010   -0.8710 ho        1 MOL      0.366141
    102 N10        -0.0500    3.1780    1.3160 n         1 MOL     -0.419743
    103 C34        -1.3650    2.5600    1.2030 c3        1 MOL     -0.079321
    104 C35        -2.3970    3.4820    0.4880 c         1 MOL      0.458083
    105 O15        -2.7060    4.5740    0.9350 o         1 MOL     -0.540685
    106 C36        -1.8600    2.1100    2.6110 c3        1 MOL      0.077123
    107 C37        -2.0410    3.2770    3.6150 c3        1 MOL     -0.007133
    108 C38        -1.0260    0.8990    3.1250 c3        1 MOL     -0.403685
    109 C39        -2.3340    2.8950    5.0610 c3        1 MOL     -0.182058
    110 H46        -0.0420    4.1310    1.6730 hn        1 MOL      0.293775
    111 H47        -1.2420    1.6670    0.5840 h1        1 MOL      0.151868
    112 H48        -2.8690    1.7040    2.5400 hc        1 MOL     -0.024820
    113 H49        -2.9660    3.7920    3.3600 hc        1 MOL      0.040483
    114 H50        -1.2140    3.9960    3.6540 hc        1 MOL      0.040483
    115 H51         0.0240    1.1740    3.1080 hc        1 MOL      0.138389
    116 H52        -1.3340    0.5460    4.1090 hc        1 MOL      0.138389
    117 H53        -1.1970    0.1220    2.3720 hc        1 MOL      0.138389
    118 H54        -3.0740    2.0900    4.9950 hc        1 MOL      0.048200
    119 H55        -1.4300    2.5390    5.5550 hc        1 MOL      0.048200
    120 H56        -2.7790    3.7070    5.6290 hc        1 MOL      0.048200
    121 N11        -3.0760    2.9530   -0.5470 n         1 MOL     -0.261170
    122 C40        -4.1710    3.5870   -1.3060 c3        1 MOL      0.091311
    123 C41        -5.4970    3.3220   -0.5470 c         1 MOL      0.361499
    124 O16        -5.4790    2.5940    0.4260 o         1 MOL     -0.274644
    125 C42        -4.1590    2.8430   -2.6500 c3        1 MOL     -0.444828
    126 O17        -4.3940    1.4670   -2.3880 oh        1 MOL     -0.232774
    127 H57        -2.8810    2.0190   -0.8780 hn        1 MOL      0.174716
    128 H58        -4.0170    4.6420   -1.5370 h1        1 MOL      0.091393
    129 H59        -3.1830    3.1170   -3.0450 h1        1 MOL      0.175029
    130 H60        -4.9080    3.2610   -3.3200 h1        1 MOL      0.175029
    131 H61        -3.7450    1.0030   -2.9160 ho        1 MOL      0.351079
    132 N12        -6.5880    3.8850   -1.0540 n         1 MOL     -0.443310
    133 C43        -7.9820    3.5100   -0.6220 c3        1 MOL      0.118636
    134 C44        -8.2560    1.9770   -0.9750 c         1 MOL      0.554617
    135 O18        -9.0230    1.4040   -0.2310 o         1 MOL     -0.498075
    136 C45        -9.0390    4.5110   -1.2710 c3        1 MOL     -0.301414
    137 H62        -6.5700    4.3650   -1.9420 hn        1 MOL      0.288832
    138 H63        -8.0910    3.6770    0.4550 h1        1 MOL      0.091298
    139 H64        -9.1420    4.3180   -2.3380 hc        1 MOL      0.097623
    140 H65        -9.9890    4.2110   -0.8220 hc        1 MOL      0.097623
    141 H66        -8.6680    5.5210   -1.1200 hc        1 MOL      0.097623
    142 N13        -7.6590    1.3730   -2.0110 n         1 MOL     -0.427910
    143 C46        -7.8330   -0.0530   -2.1210 c3        1 MOL     -0.050349
    144 C47        -7.2190   -0.9460   -0.9690 c         1 MOL      0.386547
    145 O19        -7.6160   -2.0990   -0.6380 o         1 MOL     -0.534649
    146 C48        -7.3030   -0.4060   -3.5120 c3        1 MOL     -0.191889
    147 H67        -6.8790    1.7750   -2.5070 hn        1 MOL      0.257182
    148 H68        -8.9070   -0.2280   -2.1010 h1        1 MOL      0.130762
    149 H69        -6.2810   -0.0660   -3.6940 hc        1 MOL      0.061335
    150 H70        -7.3360   -1.4690   -3.7430 hc        1 MOL      0.061335
    151 H71        -7.9240   -0.0190   -4.3240 hc        1 MOL      0.061335
    152 N14        -6.0710   -0.4740   -0.5620 n         1 MOL      0.065463
    153 C49        -5.2630   -1.1100    0.4500 c3        1 MOL     -0.038774
    154 C50        -5.9390   -0.8370    1.8100 c         1 MOL      0.481624
    155 O20        -6.1900   -1.7880    2.5530 o         1 MOL     -0.542814
    156 C51        -3.7650   -0.7590    0.3750 c3        1 MOL      0.165001
    157 C52        -3.0370   -1.5770   -0.6690 c3        1 MOL     -0.207034
    158 C53        -1.6180   -1.0030   -0.8110 c         1 MOL      0.630009
    159 O21        -1.3980    0.0880   -1.4060 o         1 MOL     -0.673801
    160 O22        -0.6150   -1.5950   -0.3620 o         1 MOL     -0.673801
    161 H72        -5.7280    0.3900   -0.9580 hn        1 MOL     -0.091823
    162 H73        -5.3480   -2.1800    0.2620 h1        1 MOL      0.023113
    163 H74        -3.2110   -0.8750    1.3040 hc        1 MOL      0.037989
    164 H75        -3.7690    0.2800    0.0440 hc        1 MOL      0.037989
    165 H76        -3.4500   -1.5740   -1.6770 hc        1 MOL     -0.013270
    166 H77        -2.9870   -2.5810   -0.2640 hc        1 MOL     -0.013270
    167 N15        -6.2270    0.4000    2.1820 n         1 MOL     -0.164617
    168 C54        -7.0580    0.7260    3.3420 c3        1 MOL     -0.226237
    169 H78        -7.3500   -0.1940    3.8490 h1        1 MOL      0.102836
    170 H79        -6.4920    1.3550    4.0300 h1        1 MOL      0.102836
    171 H80        -7.9500    1.2580    3.0130 h1        1 MOL      0.102836
    172 H81        -6.0690    1.1480    1.5210 hn        1 MOL      0.096345
    173 Ca1         1.2960   -0.5900   -1.4880 Ca        1 MOL      1.784112
    174 O23         0.9670    1.7950   -2.8380 oh        1 MOL     -0.855255
    175 H82         0.1710    2.3210   -2.8230 ho        1 MOL      0.410527
    176 H83         1.2500    1.8080   -3.7600 ho        1 MOL      0.410527
    177 O24        -0.1870   -1.9910   -3.4660 oh        1 MOL     -0.855255
    178 H84        -0.0550   -2.9110   -3.6780 ho        1 MOL      0.410527
    179 H85        -0.5750   -1.6190   -4.2590 ho        1 MOL      0.410527
    180 O25         2.3320   -0.4080   -4.0830 oh        1 MOL     -0.855255
    181 H86         2.1390   -0.2690   -5.0130 ho        1 MOL      0.410527
    182 H87         2.9540   -1.1310   -4.0760 ho        1 MOL      0.410527
@<TRIPOS>BOND
     1    1    2 1   
     2    1    4 1   
     3    1    5 1   
     4    1    6 1   
     5    2    3 2   
     6    2    7 1   
     7    7    8 1   
     8    7   15 1   
     9    8    9 1   
    10    8   11 1   
    11    8   16 1   
    12    9   10 2   
    13    9   19 1   
    14   11   12 1   
    15   11   17 1   
    16   11   18 1   
    17   12   13 1   
    18   12   14 1   
    19   19   20 1   
    20   19   28 1   
    21   20   21 1   
    22   20   23 1   
    23   20   29 1   
    24   21   22 2   
    25   21   41 1   
    26   23   24 1   
    27   23   30 1   
    28   23   31 1   
    29   24   25 1   
    30   24   32 1   
    31   24   33 1   
    32   25   26 1   
    33   25   34 1   
    34   25   35 1   
    35   26   27 1   
    36   26   36 1   
    37   26   37 1   
    38   27   38 1   
    39   27   39 1   
    40   27   40 1   
    41   41   42 1   
    42   41   49 1   
    43   42   43 1   
    44   42   45 1   
    45   42   50 1   
    46   43   44 2   
    47   43   53 1   
    48   45   46 1   
    49   45   51 1   
    50   45   52 1   
    51   46   47 1   
    52   46   48 1   
    53   53   54 1   
    54   53   57 1   
    55   54   55 1   
    56   54   58 1   
    57   54   59 1   
    58   55   56 2   
    59   55   60 1   
    60   60   61 1   
    61   60   68 1   
    62   61   62 1   
    63   61   64 1   
    64   61   69 1   
    65   62   63 2   
    66   62   74 1   
    67   64   65 1   
    68   64   70 1   
    69   64   71 1   
    70   65   66 1   
    71   65   67 2   
    72   66   72 1   
    73   66   73 1   
    74   74   75 1   
    75   74   78 1   
    76   75   76 1   
    77   75   79 1   
    78   75   80 1   
    79   76   77 2   
    80   76   81 1   
    81   81   82 1   
    82   81   93 1   
    83   82   83 1   
    84   82   85 1   
    85   82   94 1   
    86   83   84 2   
    87   83  102 1   
    88   85   86 1   
    89   85   95 1   
    90   85   96 1   
    91   86   87 ar  
    92   86   88 ar  
    93   87   89 ar  
    94   87   97 1   
    95   88   90 ar  
    96   88   98 1   
    97   89   91 ar  
    98   89   99 1   
    99   90   91 ar  
   100   90  100 1   
   101   91   92 1   
   102   92  101 1   
   103  102  103 1   
   104  102  110 1   
   105  103  104 1   
   106  103  106 1   
   107  103  111 1   
   108  104  105 2   
   109  104  121 1   
   110  106  107 1   
   111  106  108 1   
   112  106  112 1   
   113  107  109 1   
   114  107  113 1   
   115  107  114 1   
   116  108  115 1   
   117  108  116 1   
   118  108  117 1   
   119  109  118 1   
   120  109  119 1   
   121  109  120 1   
   122  121  122 1   
   123  121  127 1   
   124  122  123 1   
   125  122  125 1   
   126  122  128 1   
   127  123  124 2   
   128  123  132 1   
   129  125  126 1   
   130  125  129 1   
   131  125  130 1   
   132  126  131 1   
   133  132  133 1   
   134  132  137 1   
   135  133  134 1   
   136  133  136 1   
   137  133  138 1   
   138  134  135 2   
   139  134  142 1   
   140  136  139 1   
   141  136  140 1   
   142  136  141 1   
   143  142  143 1   
   144  142  147 1   
   145  143  144 1   
   146  143  146 1   
   147  143  148 1   
   148  144  145 2   
   149  144  152 1   
   150  146  149 1   
   151  146  150 1   
   152  146  151 1   
   153  152  153 1   
   154  152  161 1   
   155  153  154 1   
   156  153  156 1   
   157  153  162 1   
   158  154  155 2   
   159  154  167 1   
   160  156  157 1   
   161  156  163 1   
   162  156  164 1   
   163  157  158 1   
   164  157  165 1   
   165  157  166 1   
   166  158  159 1   
   167  158  160 1   
   168  167  168 1   
   169  167  172 1   
   170  168  169 1   
   171  168  170 1   
   172  168  171 1   
   173  174  175 1   
   174  174  176 1   
   175  177  178 1   
   176  177  179 1   
   177  180  181 1   
   178  180  182 1   
@<TRIPOS>SUBSTRUCTURE
     1 MOL         1 TEMP              0 ****  ****    0 ROOT
