@<TRIPOS>MOLECULE
MOL
  175   173     1     0     0
SMALL
resp


@<TRIPOS>ATOM
      1 C1         -0.0050    2.5540    5.8220 c3        1 MOL     -0.387291
      2 C2         -0.6570    2.6910    4.4480 c         1 MOL      0.849791
      3 O1         -0.2750    3.5050    3.6350 o         1 MOL     -0.638153
      4 H1         -0.7660    2.6490    6.5960 hc        1 MOL      0.095690
      5 H2          0.4750    1.5780    5.9020 hc        1 MOL      0.095690
      6 H3          0.7410    3.3390    5.9500 hc        1 MOL      0.095690
      7 N1         -1.6040    1.8570    4.0140 n         1 MOL     -0.735938
      8 C3         -1.8970    1.6880    2.5840 c3        1 MOL      0.313277
      9 C4         -2.6570    2.9220    2.0860 c         1 MOL      0.387704
     10 O2         -3.8130    3.1370    2.5110 o         1 MOL     -0.567998
     11 C5         -2.7740    0.4390    2.4240 c3        1 MOL     -0.217476
     12 C6         -3.1490    0.1860    0.9520 c         1 MOL      0.605518
     13 O3         -3.9570   -0.6860    0.5060 o         1 MOL     -0.513268
     14 O4         -2.6130    0.9250    0.1390 o         1 MOL     -0.513268
     15 H4         -1.8750    1.0120    4.5140 hn        1 MOL      0.313923
     16 H5         -1.0040    1.6340    1.9730 h1        1 MOL      0.019196
     17 H6         -3.6840    0.5170    3.0290 hc        1 MOL      0.048263
     18 H7         -2.1840   -0.3790    2.8380 hc        1 MOL      0.048263
     19 N2         -2.0540    3.7300    1.1980 n         1 MOL     -0.083264
     20 C7         -2.5790    4.9600    0.6890 c3        1 MOL      0.131894
     21 C8         -3.7170    4.7350   -0.3370 c         1 MOL      0.327018
     22 O5         -4.3590    5.7830   -0.5920 o         1 MOL     -0.547171
     23 C9         -1.4170    5.8340    0.1280 c3        1 MOL     -0.279402
     24 H8         -1.1910    3.3860    0.8030 hn        1 MOL      0.181139
     25 H9         -3.0200    5.5380    1.5050 h1        1 MOL      0.036787
     26 H10        -1.8340    6.7270   -0.3190 hc        1 MOL      0.078961
     27 H11        -0.6870    6.0450    0.9210 hc        1 MOL      0.078961
     28 H12        -0.8630    5.2950   -0.6430 hc        1 MOL      0.078961
     29 N3         -3.9010    3.5190   -0.8990 n         1 MOL      0.026336
     30 C10        -5.1230    3.3110   -1.8040 c3        1 MOL     -0.230506
     31 C11        -6.3550    2.8370   -0.9650 c         1 MOL      0.325137
     32 O6         -7.5040    2.8000   -1.4600 o         1 MOL     -0.474782
     33 C12        -4.8310    2.3660   -3.0090 c3        1 MOL      0.387941
     34 C13        -3.4550    2.4610   -3.6910 c         1 MOL      0.525291
     35 O7         -3.3920    3.2260   -4.7290 o         1 MOL     -0.695060
     36 O8         -2.4660    1.9500   -3.1400 o         1 MOL     -0.695060
     37 H13        -3.3370    2.7650   -0.5390 hn        1 MOL      0.000591
     38 H14        -5.2750    4.3240   -2.1940 h1        1 MOL      0.123792
     39 H15        -5.5320    2.4940   -3.8330 hc        1 MOL     -0.107643
     40 H16        -4.9000    1.3200   -2.7000 hc        1 MOL     -0.107643
     41 N4         -6.1230    2.5380    0.3460 n         1 MOL      0.039066
     42 C14        -7.1210    2.0590    1.2330 c3        1 MOL     -0.308333
     43 C15        -7.8860    0.8200    0.7890 c         1 MOL      0.539989
     44 O9         -9.0640    0.7290    1.0610 o         1 MOL     -0.552272
     45 H17        -5.1830    2.6100    0.6810 hn        1 MOL      0.034310
     46 H18        -7.8770    2.8490    1.3000 h1        1 MOL      0.119155
     47 H19        -6.7020    1.8970    2.2310 h1        1 MOL      0.119155
     48 N5         -7.1260   -0.1940    0.2710 n         1 MOL     -0.186090
     49 C16        -7.7030   -1.5130    0.0330 c3        1 MOL     -0.063155
     50 C17        -7.2630   -2.6220    0.9890 c         1 MOL      0.396266
     51 O10        -7.8320   -3.6500    1.0790 o         1 MOL     -0.516236
     52 C18        -7.3370   -2.0280   -1.4350 c3        1 MOL     -0.146057
     53 C19        -7.8820   -1.0520   -2.4690 c         1 MOL      0.615407
     54 N6         -9.0790   -1.2500   -3.0300 n         1 MOL     -0.824335
     55 O11        -7.3850    0.0130   -2.7470 o         1 MOL     -0.451685
     56 H20        -6.1330   -0.0040    0.2200 hn        1 MOL      0.162253
     57 H21        -8.7860   -1.4920    0.0510 h1        1 MOL      0.101196
     58 H22        -7.7370   -3.0100   -1.6920 hc        1 MOL      0.025237
     59 H23        -6.2480   -2.0740   -1.4660 hc        1 MOL      0.025237
     60 H24        -9.5660   -2.0770   -2.7070 hn        1 MOL      0.359178
     61 H25        -9.4850   -0.5220   -3.5910 hn        1 MOL      0.359178
     62 N7         -6.1530   -2.4270    1.7220 n         1 MOL     -0.075623
     63 C20        -5.5630   -3.2970    2.7410 c3        1 MOL     -0.086401
     64 C21        -4.2790   -3.9350    2.2150 c         1 MOL      0.639464
     65 O12        -3.9470   -5.0340    2.6350 o         1 MOL     -0.596956
     66 H26        -5.6310   -1.5720    1.6190 hn        1 MOL      0.017057
     67 H27        -6.2580   -4.0820    3.0470 h1        1 MOL      0.056313
     68 H28        -5.2380   -2.6300    3.5360 h1        1 MOL      0.056313
     69 N8         -3.7410   -3.3970    1.1360 n         1 MOL     -0.493633
     70 C22        -2.6950   -4.0630    0.3740 c3        1 MOL     -0.099998
     71 C23        -1.4170   -3.2100    0.1420 c         1 MOL      0.490550
     72 O13        -1.4050   -2.1670   -0.5060 o         1 MOL     -0.613491
     73 C24        -3.2420   -4.4270   -1.0120 c3        1 MOL      0.381961
     74 C25        -3.9560   -5.7930   -0.9980 c3        1 MOL     -0.584166
     75 O14        -4.1200   -3.5030   -1.6280 oh        1 MOL     -0.493732
     76 H29        -4.2050   -2.6270    0.6750 hn        1 MOL      0.382300
     77 H30        -2.3820   -4.9820    0.8610 h1        1 MOL      0.129880
     78 H31        -2.4110   -4.4950   -1.7110 h1        1 MOL     -0.022413
     79 H32        -4.0400   -3.6880   -2.5690 ho        1 MOL      0.369170
     80 H33        -4.2540   -6.0830   -2.0030 hc        1 MOL      0.154858
     81 H34        -3.3080   -6.5490   -0.5420 hc        1 MOL      0.154858
     82 H35        -4.8910   -5.6520   -0.4460 hc        1 MOL      0.154858
     83 N9         -0.2830   -3.6500    0.7640 n         1 MOL     -0.388826
     84 C26         0.9680   -2.9130    1.0020 c3        1 MOL     -0.027638
     85 C27         1.9830   -3.1280   -0.1480 c         1 MOL      0.612481
     86 O15         2.4660   -4.2430   -0.3630 o         1 MOL     -0.611759
     87 C28         1.6020   -3.2290    2.3720 c3        1 MOL      0.038075
     88 C29         0.5600   -2.9780    3.4900 c3        1 MOL      0.298777
     89 C30         2.9450   -2.4630    2.5880 c3        1 MOL     -0.100011
     90 C31         1.0470   -3.1890    4.9300 c3        1 MOL     -0.275369
     91 H36        -0.3180   -4.6000    1.0900 hn        1 MOL      0.246011
     92 H37         0.7420   -1.8540    1.0340 h1        1 MOL      0.152268
     93 H38         1.7980   -4.3030    2.4490 hc        1 MOL     -0.001120
     94 H39        -0.2900   -3.6420    3.3410 hc        1 MOL     -0.078877
     95 H40         0.2340   -1.9570    3.3110 hc        1 MOL     -0.078877
     96 H41         3.4360   -2.5340    3.5650 hc        1 MOL      0.016998
     97 H42         3.6610   -2.8510    1.8690 hc        1 MOL      0.016998
     98 H43         2.8330   -1.3940    2.3830 hc        1 MOL      0.016998
     99 H44         1.8200   -2.4830    5.2320 hc        1 MOL      0.050423
    100 H45         0.1670   -3.0500    5.5520 hc        1 MOL      0.050423
    101 H46         1.4320   -4.2090    4.9120 hc        1 MOL      0.050423
    102 N10         2.4100   -2.0400   -0.7260 n         1 MOL     -0.471226
    103 C32         3.4780   -1.9910   -1.7420 c3        1 MOL      0.222296
    104 C33         4.8040   -1.4670   -1.0590 c         1 MOL      0.455383
    105 O16         4.8460   -1.0360    0.1210 o         1 MOL     -0.381447
    106 C34         3.1490   -0.9350   -2.8460 c3        1 MOL     -0.381256
    107 C35         1.6860   -1.0900   -3.2510 c         1 MOL      0.956309
    108 O17         1.0060   -0.0410   -3.1530 o         1 MOL     -0.744241
    109 O18         1.2870   -2.0930   -3.8200 o         1 MOL     -0.744241
    110 H47         2.0740   -1.1340   -0.4300 hn        1 MOL      0.229044
    111 H48         3.6820   -2.9470   -2.2070 h1        1 MOL      0.053616
    112 H49         3.8780   -1.0390   -3.6380 hc        1 MOL      0.069028
    113 H50         3.2350    0.0530   -2.3960 hc        1 MOL      0.069028
    114 N11         5.9710   -1.5500   -1.7420 n         1 MOL     -0.642478
    115 C36         7.3230   -1.3290   -1.1370 c3        1 MOL      0.283256
    116 C37         7.6130    0.1170   -0.6160 c         1 MOL      0.084482
    117 O19         8.1830    0.1750    0.4830 o         1 MOL     -0.397130
    118 C38         8.4020   -1.9390   -2.0380 c3        1 MOL     -0.086052
    119 C39         9.7580   -1.6450   -1.4470 ca        1 MOL      0.033942
    120 C40        10.2030   -2.5100   -0.5220 ca        1 MOL     -0.162516
    121 C41        10.4120   -0.4470   -1.7480 ca        1 MOL     -0.162516
    122 C42        11.3940   -2.1910    0.1780 ca        1 MOL     -0.121558
    123 C43        11.6260   -0.1170   -1.0640 ca        1 MOL     -0.121558
    124 C44        12.0840   -1.0010   -0.0820 ca        1 MOL     -0.076280
    125 H51         5.9980   -2.0130   -2.6370 hn        1 MOL      0.308084
    126 H52         7.2480   -2.0810   -0.3560 h1        1 MOL      0.068657
    127 H53         8.2780   -1.4660   -3.0080 hc        1 MOL      0.041748
    128 H54         8.2360   -3.0020   -2.2240 hc        1 MOL      0.041748
    129 H55         9.5780   -3.3740   -0.3480 ha        1 MOL      0.122449
    130 H56         9.9440    0.2290   -2.4480 ha        1 MOL      0.122449
    131 H57        11.8110   -2.7810    0.9720 ha        1 MOL      0.114374
    132 H58        12.0960    0.8480   -1.1780 ha        1 MOL      0.114374
    133 H59        12.9360   -0.7740    0.5430 ha        1 MOL      0.094471
    134 N12         7.0960    1.1810   -1.2840 n         1 MOL      0.235402
    135 C45         7.1260    2.4920   -0.7590 c3        1 MOL     -0.085069
    136 C46         6.1830    2.8070    0.4440 c         1 MOL      0.199277
    137 O20         6.4820    3.7990    1.1520 o         1 MOL     -0.489662
    138 C47         6.7980    3.4490   -1.9670 c3        1 MOL     -0.027293
    139 C48         7.1260    2.6460   -3.2130 c3        1 MOL     -0.242626
    140 C49         6.7370    1.3000   -2.7320 c3        1 MOL     -0.090196
    141 H60         8.1290    2.7090   -0.3820 h1        1 MOL      0.083957
    142 H61         5.7110    3.5510   -1.9800 hc        1 MOL      0.070110
    143 H62         7.2170    4.4590   -1.9720 hc        1 MOL      0.070110
    144 H63         6.4420    2.8930   -4.0250 hc        1 MOL      0.086793
    145 H64         8.1960    2.6050   -3.4440 hc        1 MOL      0.086793
    146 H65         5.6540    1.2830   -2.8250 h1        1 MOL      0.072038
    147 H66         7.1680    0.5050   -3.3400 h1        1 MOL      0.072038
    148 N13         5.1350    2.0530    0.7140 n         1 MOL     -0.015333
    149 C50         4.2060    2.1260    1.8720 c3        1 MOL     -0.068079
    150 C51         4.8030    1.4680    3.0770 c         1 MOL      0.490793
    151 O21         4.6580    1.9610    4.1940 o         1 MOL     -0.564901
    152 C52         2.8120    1.6070    1.5540 c3        1 MOL     -0.043711
    153 C53         2.1050    2.3180    0.4380 c3        1 MOL      0.147766
    154 C54         0.9260    1.5700   -0.0890 c         1 MOL      0.616622
    155 O22         0.8170    0.3000   -0.2160 o         1 MOL     -0.776278
    156 O23        -0.0630    2.2250   -0.5750 o         1 MOL     -0.776278
    157 H67         4.8660    1.3640    0.0280 hn        1 MOL      0.104780
    158 H68         4.1250    3.1940    2.0490 h1        1 MOL      0.081651
    159 H69         2.1340    1.6180    2.4010 hc        1 MOL      0.022813
    160 H70         2.8230    0.5690    1.2180 hc        1 MOL      0.022813
    161 H71         2.7930    2.6260   -0.3490 hc        1 MOL     -0.008511
    162 H72         1.8090    3.3270    0.7540 hc        1 MOL     -0.008511
    163 N14         5.4620    0.3390    2.8470 n         1 MOL     -0.104918
    164 C55         6.3040   -0.3070    3.8120 c3        1 MOL     -0.147300
    165 H73         7.3390   -0.2730    3.4720 h1        1 MOL      0.065040
    166 H74         6.2190    0.2060    4.7700 h1        1 MOL      0.065040
    167 H75         5.9930   -1.3460    3.9280 h1        1 MOL      0.065040
    168 H76         5.3450   -0.1010    1.9470 hn        1 MOL      0.107086
    169 Ca1        -1.1390    0.2920   -1.9700 Ca        1 MOL      1.691808
    170 O24        -3.6090   -0.9580   -2.0430 oh        1 MOL     -0.884373
    171 H77        -3.7920   -0.5440   -1.1910 ho        1 MOL      0.407371
    172 H78        -3.6310   -1.8990   -1.8680 ho        1 MOL      0.407371
    173 O25        -1.2190   -1.4790   -4.1620 oh        1 MOL     -0.884373
    174 H79        -1.7670   -2.2520   -4.0230 ho        1 MOL      0.407371
    175 H80        -0.3280   -1.8170   -4.2040 ho        1 MOL      0.407371
@<TRIPOS>BOND
     1    1    2 1   
     2    1    4 1   
     3    1    5 1   
     4    1    6 1   
     5    2    3 2   
     6    2    7 1   
     7    7    8 1   
     8    7   15 1   
     9    8    9 1   
    10    8   11 1   
    11    8   16 1   
    12    9   10 2   
    13    9   19 1   
    14   11   12 1   
    15   11   17 1   
    16   11   18 1   
    17   12   13 1   
    18   12   14 1   
    19   19   20 1   
    20   19   24 1   
    21   20   21 1   
    22   20   23 1   
    23   20   25 1   
    24   21   22 2   
    25   21   29 1   
    26   23   26 1   
    27   23   27 1   
    28   23   28 1   
    29   29   30 1   
    30   29   37 1   
    31   30   31 1   
    32   30   33 1   
    33   30   38 1   
    34   31   32 2   
    35   31   41 1   
    36   33   34 1   
    37   33   39 1   
    38   33   40 1   
    39   34   35 1   
    40   34   36 1   
    41   41   42 1   
    42   41   45 1   
    43   42   43 1   
    44   42   46 1   
    45   42   47 1   
    46   43   44 2   
    47   43   48 1   
    48   48   49 1   
    49   48   56 1   
    50   49   50 1   
    51   49   52 1   
    52   49   57 1   
    53   50   51 2   
    54   50   62 1   
    55   52   53 1   
    56   52   58 1   
    57   52   59 1   
    58   53   54 1   
    59   53   55 2   
    60   54   60 1   
    61   54   61 1   
    62   62   63 1   
    63   62   66 1   
    64   63   64 1   
    65   63   67 1   
    66   63   68 1   
    67   64   65 2   
    68   64   69 1   
    69   69   70 1   
    70   69   76 1   
    71   70   71 1   
    72   70   73 1   
    73   70   77 1   
    74   71   72 2   
    75   71   83 1   
    76   73   74 1   
    77   73   75 1   
    78   73   78 1   
    79   74   80 1   
    80   74   81 1   
    81   74   82 1   
    82   75   79 1   
    83   83   84 1   
    84   83   91 1   
    85   84   85 1   
    86   84   87 1   
    87   84   92 1   
    88   85   86 2   
    89   85  102 1   
    90   87   88 1   
    91   87   89 1   
    92   87   93 1   
    93   88   90 1   
    94   88   94 1   
    95   88   95 1   
    96   89   96 1   
    97   89   97 1   
    98   89   98 1   
    99   90   99 1   
   100   90  100 1   
   101   90  101 1   
   102  102  103 1   
   103  102  110 1   
   104  103  104 1   
   105  103  106 1   
   106  103  111 1   
   107  104  105 2   
   108  104  114 1   
   109  106  107 1   
   110  106  112 1   
   111  106  113 1   
   112  107  108 1   
   113  107  109 1   
   114  114  115 1   
   115  114  125 1   
   116  115  116 1   
   117  115  118 1   
   118  115  126 1   
   119  116  117 2   
   120  116  134 1   
   121  118  119 1   
   122  118  127 1   
   123  118  128 1   
   124  119  120 ar  
   125  119  121 ar  
   126  120  122 ar  
   127  120  129 1   
   128  121  123 ar  
   129  121  130 1   
   130  122  124 ar  
   131  122  131 1   
   132  123  124 ar  
   133  123  132 1   
   134  124  133 1   
   135  134  135 1   
   136  134  140 1   
   137  135  136 1   
   138  135  138 1   
   139  135  141 1   
   140  136  137 2   
   141  136  148 1   
   142  138  139 1   
   143  138  142 1   
   144  138  143 1   
   145  139  140 1   
   146  139  144 1   
   147  139  145 1   
   148  140  146 1   
   149  140  147 1   
   150  148  149 1   
   151  148  157 1   
   152  149  150 1   
   153  149  152 1   
   154  149  158 1   
   155  150  151 2   
   156  150  163 1   
   157  152  153 1   
   158  152  159 1   
   159  152  160 1   
   160  153  154 1   
   161  153  161 1   
   162  153  162 1   
   163  154  155 1   
   164  154  156 1   
   165  163  164 1   
   166  163  168 1   
   167  164  165 1   
   168  164  166 1   
   169  164  167 1   
   170  170  171 1   
   171  170  172 1   
   172  173  174 1   
   173  173  175 1   
@<TRIPOS>SUBSTRUCTURE
     1 MOL         1 TEMP              0 ****  ****    0 ROOT
