@<TRIPOS>MOLECULE
MOL
  178   175     1     0     0
SMALL
resp


@<TRIPOS>ATOM
      1 C1          0.8570   -2.8110    5.9630 c3        1 MOL     -0.441836
      2 C2          1.1970   -2.7180    4.5000 c         1 MOL      0.813274
      3 O1          0.5260   -3.2150    3.6680 o         1 MOL     -0.586516
      4 H1          0.7350   -3.8570    6.2410 hc        1 MOL      0.102833
      5 H2          1.6610   -2.3700    6.5520 hc        1 MOL      0.102833
      6 H3         -0.0720   -2.2740    6.1550 hc        1 MOL      0.102833
      7 N1          2.2070   -1.8570    4.1840 n         1 MOL     -0.655284
      8 C3          2.5610   -1.7120    2.8000 c3        1 MOL      0.078405
      9 C4          3.2150   -3.0410    2.2430 c         1 MOL      0.600989
     10 O2          4.2220   -3.4250    2.7250 o         1 MOL     -0.562113
     11 C5          3.4820   -0.5460    2.5550 c3        1 MOL     -0.094248
     12 C6          4.0460   -0.4850    1.2100 c         1 MOL      0.741884
     13 O3          5.2210   -0.1020    1.0510 o         1 MOL     -0.656267
     14 O4          3.3550   -0.9610    0.2480 o         1 MOL     -0.656267
     15 H4          2.6770   -1.3060    4.8910 hn        1 MOL      0.335152
     16 H5          1.6630   -1.5860    2.1960 h1        1 MOL     -0.029459
     17 H6          4.2640   -0.6250    3.3030 hc        1 MOL      0.011773
     18 H7          3.0290    0.4410    2.6570 hc        1 MOL      0.011773
     19 N2          2.5360   -3.6770    1.2350 n         1 MOL     -0.467542
     20 C7          2.9170   -4.9370    0.6360 c3        1 MOL      0.348243
     21 C8          3.7010   -4.7710   -0.7600 c         1 MOL      0.277684
     22 O5          3.8720   -5.7580   -1.4430 o         1 MOL     -0.501742
     23 C9          1.7400   -5.8800    0.7570 c3        1 MOL     -0.213447
     24 H8          1.8110   -3.0950    0.8320 hn        1 MOL      0.360222
     25 H9          3.6370   -5.3510    1.3310 h1        1 MOL     -0.030026
     26 H10         0.9760   -5.4750    0.0970 hc        1 MOL      0.050428
     27 H11         1.9780   -6.9040    0.4950 hc        1 MOL      0.050428
     28 H12         1.2890   -5.8510    1.7440 hc        1 MOL      0.050428
     29 N3          4.1470   -3.5220   -1.1290 n         1 MOL      0.029446
     30 C10         5.1490   -3.3420   -2.2020 c3        1 MOL     -0.061874
     31 C11         6.5750   -2.9810   -1.7130 c         1 MOL      0.442584
     32 O6          7.5100   -3.1090   -2.4670 o         1 MOL     -0.510725
     33 C12         4.6780   -2.2680   -3.1730 c3        1 MOL      0.063593
     34 C13         3.2360   -2.5010   -3.5360 c         1 MOL      0.629934
     35 O7          2.9790   -3.3590   -4.4210 o         1 MOL     -0.693581
     36 O8          2.3710   -1.7540   -3.0880 o         1 MOL     -0.693581
     37 H13         3.8670   -2.7460   -0.5500 hn        1 MOL     -0.127558
     38 H14         5.3080   -4.2470   -2.7990 h1        1 MOL      0.077136
     39 H15         5.2620   -2.2640   -4.0930 hc        1 MOL     -0.016389
     40 H16         4.8170   -1.2460   -2.8110 hc        1 MOL     -0.016389
     41 N4          6.7000   -2.4780   -0.4630 n         1 MOL     -0.336641
     42 C14         8.0430   -2.0090   -0.0570 c3        1 MOL      0.035513
     43 C15         8.3670   -0.5690   -0.5300 c         1 MOL      0.339724
     44 O9          9.5540   -0.2660   -0.8390 o         1 MOL     -0.560276
     45 H17         5.9100   -2.3950    0.1610 hn        1 MOL      0.222270
     46 H18         8.7340   -2.7740   -0.4110 h1        1 MOL      0.050659
     47 H19         8.0950   -2.1460    1.0300 h1        1 MOL      0.050659
     48 N5          7.3250    0.2010   -0.6650 n         1 MOL     -0.172080
     49 C16         7.3710    1.6170   -1.1250 c3        1 MOL      0.014686
     50 C17         7.0570    2.6750   -0.0690 c         1 MOL      0.456884
     51 O10         7.0830    3.8370   -0.3980 o         1 MOL     -0.553413
     52 C18         6.4890    1.6040   -2.3660 c3        1 MOL     -0.204280
     53 C19         5.0110    1.8630   -2.0960 c         1 MOL      0.514736
     54 N6          4.4700    3.0690   -2.1710 n         1 MOL     -0.648295
     55 O11         4.2050    1.0140   -1.6370 o         1 MOL     -0.559070
     56 H20         6.4200   -0.1750   -0.4270 hn        1 MOL      0.310832
     57 H21         8.3600    1.8890   -1.5080 h1        1 MOL      0.104532
     58 H22         6.5750    0.6950   -2.9650 hc        1 MOL      0.083861
     59 H23         6.7190    2.5040   -2.9370 hc        1 MOL      0.083861
     60 H24         5.0050    3.8790   -2.4780 hn        1 MOL      0.320108
     61 H25         3.5140    3.1590   -1.8860 hn        1 MOL      0.320108
     62 N7          6.6730    2.3470    1.1260 n         1 MOL     -0.292014
     63 C20         6.4480    3.3830    2.1550 c3        1 MOL     -0.095218
     64 C21         5.1160    4.0970    2.1740 c         1 MOL      0.426783
     65 O12         5.0810    5.0640    2.9230 o         1 MOL     -0.559859
     66 H26         6.3730    1.4200    1.3760 hn        1 MOL      0.170365
     67 H27         7.2360    4.1310    2.0460 h1        1 MOL      0.112003
     68 H28         6.6280    2.9350    3.1350 h1        1 MOL      0.112003
     69 N8          4.0810    3.7550    1.4020 n         1 MOL     -0.132448
     70 C22         2.7310    4.3230    1.3270 c3        1 MOL     -0.009078
     71 C23         1.6570    3.1350    1.1170 c         1 MOL      0.328175
     72 O13         2.0390    2.0250    0.6500 o         1 MOL     -0.497684
     73 C24         2.5130    5.4320    0.2830 c3        1 MOL      0.258421
     74 C25         3.7060    6.4070   -0.0080 c3        1 MOL     -0.335732
     75 O14         2.1730    4.9000   -0.9860 oh        1 MOL     -0.599633
     76 H29         4.3200    2.9470    0.8560 hn        1 MOL      0.201901
     77 H30         2.5490    4.8600    2.2550 h1        1 MOL      0.067543
     78 H31         1.6730    6.0170    0.6590 h1        1 MOL      0.018891
     79 H32         2.2630    5.6540   -1.5760 ho        1 MOL      0.391777
     80 H33         3.5850    7.1550   -0.7900 hc        1 MOL      0.097647
     81 H34         3.8410    6.9300    0.9380 hc        1 MOL      0.097647
     82 H35         4.6260    5.8450   -0.1750 hc        1 MOL      0.097647
     83 N9          0.3530    3.3400    1.5390 n         1 MOL     -0.108908
     84 C26        -0.7650    2.4020    1.4360 c3        1 MOL     -0.705159
     85 C27        -1.9360    2.9700    0.5090 c         1 MOL      0.576731
     86 O15        -2.5190    4.0720    0.7410 o         1 MOL     -0.576659
     87 C28        -1.2480    1.6980    2.7540 c3        1 MOL      0.766202
     88 C29        -1.9370    2.6680    3.6900 c3        1 MOL     -0.077845
     89 C30        -0.0300    1.0660    3.4270 c3        1 MOL     -0.277568
     90 C31        -2.5920    1.9420    4.8660 c3        1 MOL     -0.146089
     91 H36         0.1670    4.2400    1.9580 hn        1 MOL      0.240627
     92 H37        -0.3230    1.5350    0.9600 h1        1 MOL      0.157043
     93 H38        -1.9010    0.8850    2.4390 hc        1 MOL     -0.255171
     94 H39        -2.7840    3.0960    3.1610 hc        1 MOL      0.013309
     95 H40        -1.1770    3.3910    4.0110 hc        1 MOL      0.013309
     96 H41         0.5680    0.4530    2.7440 hc        1 MOL      0.046173
     97 H42         0.5340    1.8900    3.8560 hc        1 MOL      0.046173
     98 H43        -0.4100    0.3540    4.1500 hc        1 MOL      0.046173
     99 H44        -3.2220    2.6560    5.3890 hc        1 MOL      0.022620
    100 H45        -3.2100    1.1180    4.5220 hc        1 MOL      0.022620
    101 H46        -1.8220    1.5350    5.5140 hc        1 MOL      0.022620
    102 N10        -2.2830    2.1420   -0.4770 n         1 MOL     -0.215291
    103 C32        -3.4100    2.1550   -1.4120 c3        1 MOL     -0.005983
    104 C33        -4.6260    1.4340   -0.7770 c         1 MOL      0.490804
    105 O16        -4.5460    0.8140    0.2940 o         1 MOL     -0.475642
    106 C34        -2.9400    1.5050   -2.7260 c3        1 MOL     -0.193053
    107 C35        -3.9900    1.3850   -3.7890 c         1 MOL      0.695138
    108 O17        -4.1190    0.3140   -4.4560 o         1 MOL     -0.707534
    109 O18        -4.8330    2.3290   -3.8590 o         1 MOL     -0.707534
    110 H47        -1.7650    1.2840   -0.6110 hn        1 MOL      0.244157
    111 H48        -3.6370    3.1910   -1.6420 h1        1 MOL      0.070068
    112 H49        -2.5020    0.5270   -2.5840 hc        1 MOL      0.058695
    113 H50        -2.2780    2.2540   -3.1620 hc        1 MOL      0.058695
    114 N11        -5.8180    1.6090   -1.3290 n         1 MOL     -0.545500
    115 C36        -7.0230    1.2010   -0.7410 c3        1 MOL      0.523119
    116 C37        -7.1650   -0.2830   -0.3500 c         1 MOL      0.172986
    117 O19        -7.6870   -0.5410    0.7240 o         1 MOL     -0.493566
    118 C38        -8.2410    1.5520   -1.6410 c3        1 MOL     -0.509465
    119 C39        -9.6340    1.2350   -1.0820 ca        1 MOL      0.343386
    120 C40       -10.0820    1.9530    0.0530 ca        1 MOL     -0.254043
    121 C41       -10.6260    0.6330   -1.9200 ca        1 MOL     -0.254043
    122 C42       -11.3580    1.8010    0.5300 ca        1 MOL     -0.062442
    123 C43       -11.9350    0.5530   -1.4670 ca        1 MOL     -0.062442
    124 C44       -12.2650    1.0820   -0.2140 ca        1 MOL     -0.173120
    125 H51        -5.8170    2.1300   -2.1920 hn        1 MOL      0.278810
    126 H52        -7.1010    1.7690    0.1930 h1        1 MOL      0.004029
    127 H53        -8.1200    1.1370   -2.6360 hc        1 MOL      0.131416
    128 H54        -8.2130    2.6370   -1.7790 hc        1 MOL      0.131416
    129 H55        -9.4400    2.6480    0.5580 ha        1 MOL      0.130581
    130 H56       -10.3410    0.2490   -2.8880 ha        1 MOL      0.130581
    131 H57       -11.6930    2.4190    1.3530 ha        1 MOL      0.095787
    132 H58       -12.6660   -0.0590   -1.9680 ha        1 MOL      0.095787
    133 H59       -13.2550    0.9520    0.2060 ha        1 MOL      0.097534
    134 N12        -6.6670   -1.2700   -1.0920 n         1 MOL     -0.035422
    135 C45        -6.6680   -2.7060   -0.7100 c3        1 MOL     -0.040177
    136 C46        -5.9090   -2.9430    0.5410 c         1 MOL      0.414486
    137 O20        -6.3800   -3.6000    1.4340 o         1 MOL     -0.525608
    138 C47        -6.1700   -3.5270   -1.9510 c3        1 MOL      0.034967
    139 C48        -6.0580   -2.5280   -3.0940 c3        1 MOL     -0.138804
    140 C49        -5.9870   -1.1770   -2.3860 c3        1 MOL      0.037737
    141 H60        -7.7220   -2.9360   -0.5600 h1        1 MOL      0.070859
    142 H61        -5.2310   -4.0200   -1.6700 hc        1 MOL      0.006779
    143 H62        -6.8820   -4.2900   -2.2530 hc        1 MOL      0.006779
    144 H63        -5.1830   -2.6850   -3.7310 hc        1 MOL      0.058918
    145 H64        -6.9750   -2.5090   -3.6710 hc        1 MOL      0.058918
    146 H65        -4.9530   -0.8420   -2.2360 h1        1 MOL      0.057732
    147 H66        -6.4750   -0.3930   -2.9600 h1        1 MOL      0.057732
    148 N13        -4.7140   -2.3330    0.6720 n         1 MOL     -0.160976
    149 C50        -3.7820   -2.4250    1.8550 c3        1 MOL     -0.376217
    150 C51        -4.4290   -1.7740    3.0290 c         1 MOL      0.536373
    151 O21        -4.1710   -2.2330    4.1490 o         1 MOL     -0.603827
    152 C52        -2.3910   -1.8710    1.5420 c3        1 MOL     -0.089790
    153 C53        -1.6880   -2.4760    0.2460 c3        1 MOL     -0.042712
    154 C54        -0.4900   -1.6180   -0.1380 c         1 MOL      0.745070
    155 O22         0.6830   -2.0440   -0.1470 o         1 MOL     -0.789847
    156 O23        -0.6320   -0.4540   -0.5320 o         1 MOL     -0.789847
    157 H67        -4.4670   -1.7090   -0.0870 hn        1 MOL      0.192767
    158 H68        -3.7330   -3.4760    2.1430 h1        1 MOL      0.184341
    159 H69        -1.6150   -1.9770    2.3060 hc        1 MOL      0.180318
    160 H70        -2.5300   -0.8200    1.2890 hc        1 MOL      0.180318
    161 H71        -2.3680   -2.3090   -0.5900 hc        1 MOL      0.011225
    162 H72        -1.3680   -3.5080    0.3460 hc        1 MOL      0.011225
    163 N14        -5.2360   -0.7840    2.8540 n         1 MOL      0.020722
    164 C55        -5.9720   -0.1020    3.8800 c3        1 MOL     -0.195890
    165 H73        -6.1000   -0.7640    4.7370 h1        1 MOL      0.073214
    166 H74        -5.4260    0.7890    4.1900 h1        1 MOL      0.073214
    167 H75        -6.9500    0.1860    3.4960 h1        1 MOL      0.073214
    168 H76        -5.3420   -0.3800    1.9300 hn        1 MOL      0.106739
    169 Ca1         1.7580    0.0320   -1.4060 Ca        1 MOL      1.744987
    170 O24         0.7270    2.5580   -1.9140 oh        1 MOL     -0.807000
    171 H77         0.7020    2.5740   -2.8630 ho        1 MOL      0.391901
    172 H78         0.8170    3.4660   -1.6560 ho        1 MOL      0.391901
    173 O25         2.3010    1.2220   -3.9320 oh        1 MOL     -0.807000
    174 H79         2.7030    1.8950   -4.4740 ho        1 MOL      0.391901
    175 H80         1.9590    0.5850   -4.5610 ho        1 MOL      0.391901
    176 O26        -0.0290   -0.3440   -3.8020 oh        1 MOL     -0.807000
    177 H81        -0.8640   -0.7380   -3.5520 ho        1 MOL      0.391901
    178 H82         0.4870   -1.0870   -4.1230 ho        1 MOL      0.391901
@<TRIPOS>BOND
     1    1    2 1   
     2    1    4 1   
     3    1    5 1   
     4    1    6 1   
     5    2    3 2   
     6    2    7 1   
     7    7    8 1   
     8    7   15 1   
     9    8    9 1   
    10    8   11 1   
    11    8   16 1   
    12    9   10 2   
    13    9   19 1   
    14   11   12 1   
    15   11   17 1   
    16   11   18 1   
    17   12   13 1   
    18   12   14 1   
    19   19   20 1   
    20   19   24 1   
    21   20   21 1   
    22   20   23 1   
    23   20   25 1   
    24   21   22 2   
    25   21   29 1   
    26   23   26 1   
    27   23   27 1   
    28   23   28 1   
    29   29   30 1   
    30   29   37 1   
    31   30   31 1   
    32   30   33 1   
    33   30   38 1   
    34   31   32 2   
    35   31   41 1   
    36   33   34 1   
    37   33   39 1   
    38   33   40 1   
    39   34   35 1   
    40   34   36 1   
    41   41   42 1   
    42   41   45 1   
    43   42   43 1   
    44   42   46 1   
    45   42   47 1   
    46   43   44 2   
    47   43   48 1   
    48   48   49 1   
    49   48   56 1   
    50   49   50 1   
    51   49   52 1   
    52   49   57 1   
    53   50   51 2   
    54   50   62 1   
    55   52   53 1   
    56   52   58 1   
    57   52   59 1   
    58   53   54 1   
    59   53   55 2   
    60   54   60 1   
    61   54   61 1   
    62   62   63 1   
    63   62   66 1   
    64   63   64 1   
    65   63   67 1   
    66   63   68 1   
    67   64   65 2   
    68   64   69 1   
    69   69   70 1   
    70   69   76 1   
    71   70   71 1   
    72   70   73 1   
    73   70   77 1   
    74   71   72 2   
    75   71   83 1   
    76   73   74 1   
    77   73   75 1   
    78   73   78 1   
    79   74   80 1   
    80   74   81 1   
    81   74   82 1   
    82   75   79 1   
    83   83   84 1   
    84   83   91 1   
    85   84   85 1   
    86   84   87 1   
    87   84   92 1   
    88   85   86 2   
    89   85  102 1   
    90   87   88 1   
    91   87   89 1   
    92   87   93 1   
    93   88   90 1   
    94   88   94 1   
    95   88   95 1   
    96   89   96 1   
    97   89   97 1   
    98   89   98 1   
    99   90   99 1   
   100   90  100 1   
   101   90  101 1   
   102  102  103 1   
   103  102  110 1   
   104  103  104 1   
   105  103  106 1   
   106  103  111 1   
   107  104  105 2   
   108  104  114 1   
   109  106  107 1   
   110  106  112 1   
   111  106  113 1   
   112  107  108 1   
   113  107  109 1   
   114  114  115 1   
   115  114  125 1   
   116  115  116 1   
   117  115  118 1   
   118  115  126 1   
   119  116  117 2   
   120  116  134 1   
   121  118  119 1   
   122  118  127 1   
   123  118  128 1   
   124  119  120 ar  
   125  119  121 ar  
   126  120  122 ar  
   127  120  129 1   
   128  121  123 ar  
   129  121  130 1   
   130  122  124 ar  
   131  122  131 1   
   132  123  124 ar  
   133  123  132 1   
   134  124  133 1   
   135  134  135 1   
   136  134  140 1   
   137  135  136 1   
   138  135  138 1   
   139  135  141 1   
   140  136  137 2   
   141  136  148 1   
   142  138  139 1   
   143  138  142 1   
   144  138  143 1   
   145  139  140 1   
   146  139  144 1   
   147  139  145 1   
   148  140  146 1   
   149  140  147 1   
   150  148  149 1   
   151  148  157 1   
   152  149  150 1   
   153  149  152 1   
   154  149  158 1   
   155  150  151 2   
   156  150  163 1   
   157  152  153 1   
   158  152  159 1   
   159  152  160 1   
   160  153  154 1   
   161  153  161 1   
   162  153  162 1   
   163  154  155 1   
   164  154  156 1   
   165  163  164 1   
   166  163  168 1   
   167  164  165 1   
   168  164  166 1   
   169  164  167 1   
   170  170  171 1   
   171  170  172 1   
   172  173  174 1   
   173  173  175 1   
   174  176  177 1   
   175  176  178 1   
@<TRIPOS>SUBSTRUCTURE
     1 MOL         1 TEMP              0 ****  ****    0 ROOT
