@<TRIPOS>MOLECULE
MOL
  179   176     1     0     0
SMALL
resp


@<TRIPOS>ATOM
      1 C1          0.0780    5.1400   -4.8090 c3        1 MOL     -0.340036
      2 C2          0.4410    4.3670   -3.5250 c         1 MOL      0.641868
      3 O1         -0.4530    4.2560   -2.6750 o         1 MOL     -0.547149
      4 H1         -0.4840    4.4870   -5.4780 hc        1 MOL      0.079710
      5 H2         -0.5310    6.0060   -4.5510 hc        1 MOL      0.079710
      6 H3          0.9900    5.4700   -5.3050 hc        1 MOL      0.079710
      7 N1          1.6180    3.8490   -3.3910 n         1 MOL     -0.599558
      8 C3          2.0690    3.0890   -2.2250 c3        1 MOL      0.155018
      9 C4          2.8920    4.1010   -1.3960 c         1 MOL      0.436227
     10 O2          4.0910    4.1600   -1.5500 o         1 MOL     -0.484698
     11 C5          2.7770    1.7160   -2.5020 c3        1 MOL     -0.159351
     12 C6          3.0900    0.8610   -1.2570 c         1 MOL      0.987349
     13 O3          2.3260    0.8990   -0.2710 o         1 MOL     -0.845352
     14 O4          4.0410    0.0590   -1.3430 o         1 MOL     -0.845352
     15 H4          2.2490    3.8150   -4.1730 hn        1 MOL      0.345821
     16 H5          1.1710    2.8380   -1.6600 h1        1 MOL      0.074702
     17 H6          3.7150    1.9550   -3.0180 hc        1 MOL      0.023357
     18 H7          2.1210    1.1190   -3.1360 hc        1 MOL      0.023357
     19 N2          2.1440    4.8380   -0.5960 n         1 MOL     -0.339567
     20 C7          2.6820    5.9810    0.1480 c3        1 MOL     -0.062430
     21 C8          3.3530    5.6710    1.4700 c         1 MOL      0.483379
     22 O5          4.0020    6.4830    2.0960 o         1 MOL     -0.553923
     23 C9          1.5760    7.0210    0.4500 c3        1 MOL     -0.127076
     24 C10         1.2700    7.5790   -0.9590 c3        1 MOL      0.224152
     25 C11        -0.0170    8.5030   -0.7220 c3        1 MOL     -0.150081
     26 C12        -0.7750    8.8080   -2.0290 c3        1 MOL      0.037742
     27 N3          0.1160    9.4970   -2.9430 n4        1 MOL     -0.233274
     28 H8          1.1540    4.6570   -0.5250 hn        1 MOL      0.324225
     29 H9          3.4270    6.5130   -0.4380 h1        1 MOL      0.101300
     30 H10         2.0800    7.7850    1.0390 hc        1 MOL      0.074449
     31 H11         0.6860    6.6200    0.9330 hc        1 MOL      0.074449
     32 H12         0.9800    6.7920   -1.6630 hc        1 MOL     -0.066842
     33 H13         2.0700    8.2190   -1.3310 hc        1 MOL     -0.066842
     34 H14         0.3430    9.3730   -0.1680 hc        1 MOL      0.066082
     35 H15        -0.6130    7.8520   -0.0850 hc        1 MOL      0.066082
     36 H16        -1.6140    9.4410   -1.7510 hx        1 MOL      0.084973
     37 H17        -1.1230    7.8760   -2.4510 hx        1 MOL      0.084973
     38 H18         0.7990    8.7840   -3.1720 hn        1 MOL      0.288971
     39 H19        -0.3770    9.7990   -3.7600 hn        1 MOL      0.288971
     40 H20         0.6710   10.2740   -2.6120 hn        1 MOL      0.288971
     41 N4          3.4330    4.4080    1.7960 n         1 MOL     -0.206844
     42 C13         4.2390    3.8390    2.8700 c3        1 MOL      0.043550
     43 C14         5.3350    2.8800    2.2310 c         1 MOL      0.376120
     44 O6          6.4010    2.7050    2.8050 o         1 MOL     -0.534085
     45 C15         3.4430    3.1390    3.9290 c3        1 MOL     -0.291220
     46 C16         2.6760    2.0970    3.1650 c         1 MOL      0.824138
     47 O7          1.4980    2.2680    2.9040 o         1 MOL     -0.784283
     48 O8          3.1370    1.0180    2.7720 o         1 MOL     -0.784283
     49 H21         2.8680    3.7930    1.2290 hn        1 MOL      0.167654
     50 H22         4.7240    4.6760    3.3690 h1        1 MOL      0.104058
     51 H23         2.6620    3.6510    4.5040 hc        1 MOL      0.082429
     52 H24         4.0000    2.5220    4.6290 hc        1 MOL      0.082429
     53 N5          5.1650    2.4580    0.9780 n         1 MOL      0.079163
     54 C17         6.3470    1.8850    0.2800 c3        1 MOL     -0.290424
     55 C18         6.6220    0.3780    0.4300 c         1 MOL      0.588119
     56 O9          7.5580   -0.0790   -0.2830 o         1 MOL     -0.607946
     57 H25         4.4000    2.6450    0.3550 hn        1 MOL     -0.055363
     58 H26         7.1920    2.4620    0.6270 h1        1 MOL      0.133902
     59 H27         6.1670    2.1250   -0.7760 h1        1 MOL      0.133902
     60 N6          5.8670   -0.3930    1.1370 n         1 MOL     -0.336308
     61 C19         6.1470   -1.8050    1.4220 c3        1 MOL      0.064745
     62 C20         5.9650   -2.8220    0.2300 c         1 MOL      0.239175
     63 O10         6.0770   -4.0420    0.3380 o         1 MOL     -0.454205
     64 C21         5.3470   -2.2080    2.6960 c3        1 MOL     -0.433379
     65 C22         3.9320   -2.5960    2.3500 c         1 MOL      0.621441
     66 N7          3.5920   -3.8120    2.6530 n         1 MOL     -0.645284
     67 O11         3.1570   -1.8280    1.8210 o         1 MOL     -0.567344
     68 H28         5.1930    0.1210    1.6890 hn        1 MOL      0.266787
     69 H29         7.2140   -1.9290    1.6420 h1        1 MOL      0.109331
     70 H30         5.2230   -1.3600    3.3740 hc        1 MOL      0.150122
     71 H31         5.8070   -3.0760    3.1530 hc        1 MOL      0.150122
     72 H32         4.2280   -4.3240    3.2560 hn        1 MOL      0.316691
     73 H33         2.6580   -4.1830    2.6010 hn        1 MOL      0.316691
     74 N8          5.5070   -2.2610   -0.8720 n         1 MOL     -0.025227
     75 C23         5.2790   -2.8400   -2.1640 c3        1 MOL     -0.424804
     76 C24         3.9490   -3.5020   -2.3560 c         1 MOL      0.619481
     77 O12         3.7550   -4.1500   -3.4080 o         1 MOL     -0.601006
     78 H34         5.3480   -1.2690   -0.7850 hn        1 MOL      0.321580
     79 H35         6.0380   -3.5790   -2.3960 h1        1 MOL      0.173025
     80 H36         5.4000   -1.9980   -2.8520 h1        1 MOL      0.173025
     81 N9          3.0340   -3.4110   -1.4160 n         1 MOL     -0.348947
     82 C25         1.7010   -4.0630   -1.4080 c3        1 MOL      0.405673
     83 C26         0.7130   -2.9370   -1.0360 c         1 MOL      0.333941
     84 O13         1.0040   -2.1000   -0.1680 o         1 MOL     -0.531257
     85 C27         1.5330   -5.2790   -0.5360 c3        1 MOL      0.108258
     86 C28         2.4820   -6.4270   -0.8570 ca        1 MOL      0.058724
     87 C29         3.5680   -6.5310   -0.0520 ca        1 MOL     -0.214602
     88 C30         2.1870   -7.4140   -1.8350 ca        1 MOL     -0.214602
     89 C31         4.5520   -7.5310   -0.2210 ca        1 MOL     -0.241672
     90 C32         3.1010   -8.4920   -1.9500 ca        1 MOL     -0.241672
     91 C33         4.3240   -8.5100   -1.1920 ca        1 MOL      0.360708
     92 O14         5.2720   -9.4940   -1.3830 oh        1 MOL     -0.502531
     93 H37         3.3340   -2.8340   -0.6410 hn        1 MOL      0.218568
     94 H38         1.5020   -4.4620   -2.4090 h1        1 MOL     -0.043223
     95 H39         0.5200   -5.6590   -0.6230 hc        1 MOL     -0.057116
     96 H40         1.6690   -4.9370    0.4880 hc        1 MOL     -0.057116
     97 H41         3.7910   -5.6920    0.5980 ha        1 MOL      0.147730
     98 H42         1.3200   -7.3610   -2.4700 ha        1 MOL      0.147730
     99 H43         5.3290   -7.6050    0.5250 ha        1 MOL      0.142947
    100 H44         2.8490   -9.2320   -2.6860 ha        1 MOL      0.142947
    101 H45         5.1210  -10.0390   -2.1550 ho        1 MOL      0.363963
    102 N10        -0.5000   -2.9300   -1.6410 n         1 MOL     -0.554207
    103 C34        -1.6490   -1.9870   -1.2530 c3        1 MOL      0.275768
    104 C35        -2.9520   -2.8610   -1.0430 c         1 MOL      0.453830
    105 O15        -3.0300   -3.9150   -1.7050 o         1 MOL     -0.537369
    106 C36        -1.7960   -0.9420   -2.4720 c3        1 MOL     -0.097049
    107 C37        -0.5560   -0.0990   -2.6430 c3        1 MOL     -0.110069
    108 C38        -2.9970   -0.0140   -2.2500 c3        1 MOL      0.021984
    109 C39        -0.5650    0.9360   -3.7420 c3        1 MOL     -0.018988
    110 H46        -0.7060   -3.7590   -2.1720 hn        1 MOL      0.308438
    111 H47        -1.4060   -1.3990   -0.3740 h1        1 MOL     -0.045709
    112 H48        -1.9290   -1.5170   -3.3920 hc        1 MOL      0.034494
    113 H49         0.3670   -0.6650   -2.5940 hc        1 MOL      0.081012
    114 H50        -0.4530    0.5730   -1.7880 hc        1 MOL      0.081012
    115 H51        -2.7030    0.4450   -1.3100 hc        1 MOL      0.006984
    116 H52        -3.1560    0.6240   -3.1180 hc        1 MOL      0.006984
    117 H53        -3.9490   -0.5340   -2.1240 hc        1 MOL      0.006984
    118 H54         0.3670    0.9300   -4.3090 hc        1 MOL      0.016237
    119 H55        -1.3070    0.6670   -4.4970 hc        1 MOL      0.016237
    120 H56        -0.8190    1.9130   -3.3350 hc        1 MOL      0.016237
    121 N11        -3.9700   -2.5160   -0.2400 n         1 MOL     -0.284206
    122 C40        -5.2420   -3.2480   -0.0280 c3        1 MOL      0.086607
    123 C41        -6.4370   -2.4590   -0.6320 c         1 MOL      0.385618
    124 O16        -6.2870   -1.1930   -0.7270 o         1 MOL     -0.327130
    125 C42        -5.4350   -3.6610    1.4420 c3        1 MOL     -0.038077
    126 O17        -5.9040   -2.5680    2.2650 oh        1 MOL     -0.521643
    127 H57        -3.8460   -1.6810    0.3260 hn        1 MOL      0.174859
    128 H58        -5.2330   -4.1540   -0.6360 h1        1 MOL      0.062412
    129 H59        -4.5070   -4.0870    1.8120 h1        1 MOL      0.090943
    130 H60        -6.2270   -4.4090    1.5150 h1        1 MOL      0.090943
    131 H61        -5.1930   -2.2570    2.8350 ho        1 MOL      0.416829
    132 N12        -7.6600   -2.9940   -0.9490 n         1 MOL     -0.415148
    133 C43        -8.7730   -2.1430   -1.2900 c3        1 MOL      0.080579
    134 C44        -9.2180   -1.1770   -0.1800 c         1 MOL      0.566201
    135 O18        -9.9910   -0.2740   -0.4150 o         1 MOL     -0.549683
    136 C45        -9.9230   -2.9950   -1.7590 c3        1 MOL     -0.353861
    137 H62        -7.8410   -3.9910   -0.9050 hn        1 MOL      0.300923
    138 H63        -8.4630   -1.4490   -2.0690 h1        1 MOL      0.103389
    139 H64        -9.6970   -3.5500   -2.6610 hc        1 MOL      0.110616
    140 H65       -10.2720   -3.5670   -0.8960 hc        1 MOL      0.110616
    141 H66       -10.6960   -2.2440   -1.9100 hc        1 MOL      0.110616
    142 N13        -8.7630   -1.3160    1.0730 n         1 MOL     -0.447123
    143 C46        -9.0180   -0.4170    2.2280 c3        1 MOL      0.194593
    144 C47        -7.9400    0.7240    2.3720 c         1 MOL      0.326672
    145 O19        -8.2280    1.7700    2.9860 o         1 MOL     -0.522158
    146 C48        -8.8910   -1.2280    3.5450 c3        1 MOL     -0.308071
    147 H67        -8.1440   -2.0860    1.2760 hn        1 MOL      0.279449
    148 H68       -10.0130    0.0070    2.2170 h1        1 MOL      0.081279
    149 H69        -9.2640   -0.5750    4.3350 hc        1 MOL      0.085380
    150 H70        -9.4270   -2.1720    3.4500 hc        1 MOL      0.085380
    151 H71        -7.8290   -1.3070    3.7570 hc        1 MOL      0.085380
    152 N14        -6.8160    0.5160    1.7520 n         1 MOL      0.031767
    153 C49        -5.6660    1.4440    1.4230 c3        1 MOL     -0.129023
    154 C50        -5.8430    2.2350    0.1070 c         1 MOL      0.522771
    155 O20        -5.4860    3.3660    0.0540 o         1 MOL     -0.524929
    156 C51        -4.2550    0.7630    1.3570 c3        1 MOL      0.072145
    157 C52        -3.0860    1.7040    1.6940 c3        1 MOL     -0.126619
    158 C53        -1.7200    0.9340    1.5250 c         1 MOL      0.701511
    159 O21        -1.4790   -0.0840    2.2130 o         1 MOL     -0.748144
    160 O22        -0.8940    1.3830    0.6370 o         1 MOL     -0.748144
    161 H72        -6.5650   -0.3830    1.3820 hn        1 MOL     -0.102839
    162 H73        -5.5560    2.1660    2.2400 h1        1 MOL      0.094163
    163 H74        -4.0820    0.2690    0.3980 hc        1 MOL      0.006550
    164 H75        -4.2340   -0.0430    2.0990 hc        1 MOL      0.006550
    165 H76        -3.1840    2.1970    2.6690 hc        1 MOL      0.048858
    166 H77        -3.1700    2.5120    0.9640 hc        1 MOL      0.048858
    167 N15        -6.3470    1.5850   -0.9770 n         1 MOL     -0.257698
    168 C54        -6.4630    2.1120   -2.3900 c3        1 MOL     -0.132237
    169 H78        -7.0940    1.4450   -2.9770 h1        1 MOL      0.080360
    170 H79        -6.9060    3.1070   -2.3720 h1        1 MOL      0.080360
    171 H80        -5.4720    2.1630   -2.8420 h1        1 MOL      0.080360
    172 H81        -6.5530    0.6020   -0.8700 hn        1 MOL      0.114748
    173 Ca1         1.0560   -0.1920    1.6800 Ca        1 MOL      1.773395
    174 O23         0.5120   -2.8120    2.8470 oh        1 MOL     -0.759100
    175 H82         0.7350   -3.4400    3.5410 ho        1 MOL      0.383073
    176 H83         0.0740   -3.3340    2.1750 ho        1 MOL      0.383073
    177 O24         1.0620   -0.5090    4.3550 oh        1 MOL     -0.759100
    178 H84         1.7750   -0.1000    4.8440 ho        1 MOL      0.383073
    179 H85         0.3980   -0.7070    5.0280 ho        1 MOL      0.383073
@<TRIPOS>BOND
     1    1    2 1   
     2    1    4 1   
     3    1    5 1   
     4    1    6 1   
     5    2    3 2   
     6    2    7 1   
     7    7    8 1   
     8    7   15 1   
     9    8    9 1   
    10    8   11 1   
    11    8   16 1   
    12    9   10 2   
    13    9   19 1   
    14   11   12 1   
    15   11   17 1   
    16   11   18 1   
    17   12   13 1   
    18   12   14 1   
    19   19   20 1   
    20   19   28 1   
    21   20   21 1   
    22   20   23 1   
    23   20   29 1   
    24   21   22 2   
    25   21   41 1   
    26   23   24 1   
    27   23   30 1   
    28   23   31 1   
    29   24   25 1   
    30   24   32 1   
    31   24   33 1   
    32   25   26 1   
    33   25   34 1   
    34   25   35 1   
    35   26   27 1   
    36   26   36 1   
    37   26   37 1   
    38   27   38 1   
    39   27   39 1   
    40   27   40 1   
    41   41   42 1   
    42   41   49 1   
    43   42   43 1   
    44   42   45 1   
    45   42   50 1   
    46   43   44 2   
    47   43   53 1   
    48   45   46 1   
    49   45   51 1   
    50   45   52 1   
    51   46   47 1   
    52   46   48 1   
    53   53   54 1   
    54   53   57 1   
    55   54   55 1   
    56   54   58 1   
    57   54   59 1   
    58   55   56 2   
    59   55   60 1   
    60   60   61 1   
    61   60   68 1   
    62   61   62 1   
    63   61   64 1   
    64   61   69 1   
    65   62   63 2   
    66   62   74 1   
    67   64   65 1   
    68   64   70 1   
    69   64   71 1   
    70   65   66 1   
    71   65   67 2   
    72   66   72 1   
    73   66   73 1   
    74   74   75 1   
    75   74   78 1   
    76   75   76 1   
    77   75   79 1   
    78   75   80 1   
    79   76   77 2   
    80   76   81 1   
    81   81   82 1   
    82   81   93 1   
    83   82   83 1   
    84   82   85 1   
    85   82   94 1   
    86   83   84 2   
    87   83  102 1   
    88   85   86 1   
    89   85   95 1   
    90   85   96 1   
    91   86   87 ar  
    92   86   88 ar  
    93   87   89 ar  
    94   87   97 1   
    95   88   90 ar  
    96   88   98 1   
    97   89   91 ar  
    98   89   99 1   
    99   90   91 ar  
   100   90  100 1   
   101   91   92 1   
   102   92  101 1   
   103  102  103 1   
   104  102  110 1   
   105  103  104 1   
   106  103  106 1   
   107  103  111 1   
   108  104  105 2   
   109  104  121 1   
   110  106  107 1   
   111  106  108 1   
   112  106  112 1   
   113  107  109 1   
   114  107  113 1   
   115  107  114 1   
   116  108  115 1   
   117  108  116 1   
   118  108  117 1   
   119  109  118 1   
   120  109  119 1   
   121  109  120 1   
   122  121  122 1   
   123  121  127 1   
   124  122  123 1   
   125  122  125 1   
   126  122  128 1   
   127  123  124 2   
   128  123  132 1   
   129  125  126 1   
   130  125  129 1   
   131  125  130 1   
   132  126  131 1   
   133  132  133 1   
   134  132  137 1   
   135  133  134 1   
   136  133  136 1   
   137  133  138 1   
   138  134  135 2   
   139  134  142 1   
   140  136  139 1   
   141  136  140 1   
   142  136  141 1   
   143  142  143 1   
   144  142  147 1   
   145  143  144 1   
   146  143  146 1   
   147  143  148 1   
   148  144  145 2   
   149  144  152 1   
   150  146  149 1   
   151  146  150 1   
   152  146  151 1   
   153  152  153 1   
   154  152  161 1   
   155  153  154 1   
   156  153  156 1   
   157  153  162 1   
   158  154  155 2   
   159  154  167 1   
   160  156  157 1   
   161  156  163 1   
   162  156  164 1   
   163  157  158 1   
   164  157  165 1   
   165  157  166 1   
   166  158  159 1   
   167  158  160 1   
   168  167  168 1   
   169  167  172 1   
   170  168  169 1   
   171  168  170 1   
   172  168  171 1   
   173  174  175 1   
   174  174  176 1   
   175  177  178 1   
   176  177  179 1   
@<TRIPOS>SUBSTRUCTURE
     1 MOL         1 TEMP              0 ****  ****    0 ROOT
