@<TRIPOS>MOLECULE
MOL
  175   173     1     0     0
SMALL
resp


@<TRIPOS>ATOM
      1 C1          0.4390    4.1320    5.6250 c3        1 MOL     -0.481764
      2 C2         -0.2180    4.0690    4.2260 c         1 MOL      0.741207
      3 O1          0.4180    4.3870    3.2340 o         1 MOL     -0.542699
      4 H1         -0.3220    3.9740    6.3900 hc        1 MOL      0.120145
      5 H2          1.2000    3.3560    5.7050 hc        1 MOL      0.120145
      6 H3          0.8990    5.1100    5.7670 hc        1 MOL      0.120145
      7 N1         -1.5310    3.7180    4.1400 n         1 MOL     -0.663207
      8 C3         -2.1230    3.4280    2.8080 c3        1 MOL      0.115070
      9 C4         -2.3560    4.5660    1.7780 c         1 MOL      0.599912
     10 O2         -2.7690    5.6280    2.2080 o         1 MOL     -0.586933
     11 C5         -3.5050    2.8070    2.9990 c3        1 MOL     -0.310796
     12 C6         -4.1570    2.2590    1.7490 c         1 MOL      0.788177
     13 O3         -3.5080    1.9730    0.6880 o         1 MOL     -0.688648
     14 O4         -5.3730    1.9140    1.8210 o         1 MOL     -0.688648
     15 H4         -2.1010    3.6910    4.9760 hn        1 MOL      0.356410
     16 H5         -1.4430    2.7700    2.2580 h1        1 MOL      0.080147
     17 H6         -4.1430    3.5880    3.4160 hc        1 MOL      0.067341
     18 H7         -3.5450    2.0510    3.7800 hc        1 MOL      0.067341
     19 N2         -2.1000    4.3660    0.4540 n         1 MOL     -0.535665
     20 C7         -2.0930    5.3280   -0.6850 c3        1 MOL      0.312809
     21 C8         -3.0850    4.9370   -1.8010 c         1 MOL      0.330719
     22 O5         -3.0100    5.6000   -2.8610 o         1 MOL     -0.548223
     23 C9         -0.6030    5.4470   -1.2480 c3        1 MOL     -0.311651
     24 H8         -1.8370    3.4050    0.3010 hn        1 MOL      0.379190
     25 H9         -2.4800    6.2390   -0.2200 h1        1 MOL      0.014464
     26 H10         0.1650    5.6250   -0.4890 hc        1 MOL      0.081592
     27 H11        -0.3900    4.5000   -1.7460 hc        1 MOL      0.081592
     28 H12        -0.5380    6.3660   -1.8260 hc        1 MOL      0.081592
     29 N3         -3.8660    3.8250   -1.7240 n         1 MOL     -0.147189
     30 C10        -4.7460    3.4030   -2.7960 c3        1 MOL     -0.025934
     31 C11        -6.0600    2.6410   -2.3500 c         1 MOL      0.347416
     32 O6         -7.0370    2.5330   -3.1200 o         1 MOL     -0.531084
     33 C12        -3.9350    2.5470   -3.7600 c3        1 MOL      0.044570
     34 C13        -3.2810    1.3390   -3.2040 c         1 MOL      0.594613
     35 O7         -2.2620    0.8560   -3.8200 o         1 MOL     -0.659378
     36 O8         -3.6120    0.6930   -2.0830 o         1 MOL     -0.659378
     37 H13        -3.8970    3.3260   -0.8500 hn        1 MOL      0.065581
     38 H14        -5.0680    4.2980   -3.3390 h1        1 MOL      0.076186
     39 H15        -3.2090    3.1640   -4.3000 hc        1 MOL      0.007802
     40 H16        -4.6080    2.1870   -4.5400 hc        1 MOL      0.007802
     41 N4         -6.0720    2.1010   -1.1420 n         1 MOL     -0.146135
     42 C14        -7.1220    1.1760   -0.7090 c3        1 MOL     -0.324048
     43 C15        -7.2090   -0.1890   -1.3790 c         1 MOL      0.576763
     44 O9         -8.2630   -0.7660   -1.3350 o         1 MOL     -0.605723
     45 H17        -5.3330    2.2370   -0.4710 hn        1 MOL      0.193982
     46 H18        -8.0590    1.7190   -0.8730 h1        1 MOL      0.136287
     47 H19        -7.0620    0.9970    0.3680 h1        1 MOL      0.136287
     48 N5         -6.0810   -0.7000   -1.8660 n         1 MOL     -0.284133
     49 C16        -5.9720   -2.0740   -2.3900 c3        1 MOL     -0.091590
     50 C17        -6.0740   -3.2090   -1.3190 c         1 MOL      0.490970
     51 O10        -6.0360   -4.3770   -1.7590 o         1 MOL     -0.558503
     52 C18        -4.7010   -2.1530   -3.3100 c3        1 MOL     -0.016248
     53 C19        -3.3970   -2.4960   -2.6280 c         1 MOL      0.475216
     54 N6         -2.3660   -2.7620   -3.3350 n         1 MOL     -0.593940
     55 O11        -3.1790   -2.2900   -1.3960 o         1 MOL     -0.536374
     56 H20        -5.2950   -0.0870   -2.0320 hn        1 MOL      0.241253
     57 H21        -6.8020   -2.2510   -3.0610 h1        1 MOL      0.100154
     58 H22        -4.6890   -1.2180   -3.8610 hc        1 MOL      0.036610
     59 H23        -4.9350   -2.8620   -4.1140 hc        1 MOL      0.036610
     60 H24        -2.4860   -2.8650   -4.3260 hn        1 MOL      0.325429
     61 H25        -1.4290   -2.7030   -2.9670 hn        1 MOL      0.325429
     62 N7         -6.2230   -2.9070   -0.0300 n         1 MOL     -0.316705
     63 C20        -6.3260   -3.9400    1.0330 c3        1 MOL     -0.011796
     64 C21        -5.0210   -4.3180    1.8010 c         1 MOL      0.517992
     65 O12        -5.0860   -5.0450    2.8030 o         1 MOL     -0.574512
     66 H26        -6.0770   -1.9490    0.2390 hn        1 MOL      0.274617
     67 H27        -6.8360   -4.8530    0.7210 h1        1 MOL      0.062269
     68 H28        -6.9790   -3.5670    1.8230 h1        1 MOL      0.062269
     69 N8         -3.8490   -3.8280    1.3420 n         1 MOL     -0.379536
     70 C22        -2.4440   -4.3250    1.6600 c3        1 MOL     -0.196978
     71 C23        -1.3970   -3.2110    1.7530 c         1 MOL      0.818100
     72 O13        -1.6000   -2.1460    1.1630 o         1 MOL     -0.612125
     73 C24        -2.0050   -5.4090    0.6810 c3        1 MOL      0.425043
     74 C25        -2.7300   -6.6770    1.0020 c3        1 MOL     -0.535022
     75 O14        -2.3760   -5.0210   -0.5900 oh        1 MOL     -0.548493
     76 H29        -3.9540   -3.2190    0.5360 hn        1 MOL      0.300168
     77 H30        -2.4290   -4.6840    2.6860 h1        1 MOL      0.110783
     78 H31        -0.9220   -5.4500    0.6740 h1        1 MOL      0.011696
     79 H32        -2.2490   -4.0690   -0.6720 ho        1 MOL      0.320975
     80 H33        -3.7400   -6.7280    0.5970 hc        1 MOL      0.139789
     81 H34        -2.1670   -7.4110    0.4210 hc        1 MOL      0.139789
     82 H35        -2.7030   -7.0450    2.0190 hc        1 MOL      0.139789
     83 N9         -0.3290   -3.4290    2.4670 n         1 MOL     -0.803176
     84 C26         0.9220   -2.7100    2.3390 c3        1 MOL      0.041174
     85 C27         1.6360   -3.1140    1.0100 c         1 MOL      0.573166
     86 O15         1.8360   -4.3220    0.8320 o         1 MOL     -0.588202
     87 C28         1.7550   -2.7520    3.5700 c3        1 MOL      0.288430
     88 C29         0.8610   -2.6700    4.8430 c3        1 MOL      0.204795
     89 C30         2.8930   -1.6910    3.4060 c3        1 MOL     -0.443300
     90 C31         1.7000   -2.6370    6.0820 c3        1 MOL     -0.205596
     91 H36        -0.1400   -4.3680    2.7990 hn        1 MOL      0.328633
     92 H37         0.6640   -1.6580    2.2170 h1        1 MOL      0.095896
     93 H38         2.2850   -3.6930    3.6730 hc        1 MOL     -0.058988
     94 H39         0.2260   -3.5610    4.8560 hc        1 MOL     -0.040145
     95 H40         0.2780   -1.7490    4.8280 hc        1 MOL     -0.040145
     96 H41         2.5050   -0.6790    3.4170 hc        1 MOL      0.089072
     97 H42         3.5690   -1.6240    4.2640 hc        1 MOL      0.089072
     98 H43         3.4180   -1.9170    2.4820 hc        1 MOL      0.089072
     99 H44         1.0480   -2.8560    6.9230 hc        1 MOL      0.034198
    100 H45         2.3820   -3.4950    6.1040 hc        1 MOL      0.034198
    101 H46         2.2370   -1.6990    6.1960 hc        1 MOL      0.034198
    102 N10         1.9220   -2.1300    0.0610 n         1 MOL     -0.039943
    103 C32         2.6690   -2.0620   -1.1560 c3        1 MOL     -0.068311
    104 C33         4.0310   -1.5280   -0.7860 c         1 MOL      0.446337
    105 O16         4.2320   -0.7590    0.1830 o         1 MOL     -0.356772
    106 C34         2.0740   -1.0690   -2.1360 c3        1 MOL     -0.337874
    107 C35         0.6220   -1.4290   -2.4820 c         1 MOL      0.805972
    108 O17         0.4130   -2.0580   -3.5080 o         1 MOL     -0.672653
    109 O18        -0.3010   -1.0770   -1.6860 o         1 MOL     -0.672653
    110 H47         1.4160   -1.2750    0.1980 hn        1 MOL     -0.091605
    111 H48         2.8210   -3.0580   -1.5820 h1        1 MOL      0.080209
    112 H49         2.5690   -1.0780   -3.1160 hc        1 MOL      0.118261
    113 H50         2.0820   -0.0470   -1.7550 hc        1 MOL      0.118261
    114 N11         5.0880   -1.7430   -1.5600 n         1 MOL     -0.492328
    115 C36         6.4960   -1.4210   -1.3270 c3        1 MOL      0.158052
    116 C37         6.6750    0.1280   -1.0290 c         1 MOL      0.317465
    117 O19         7.2020    0.4730    0.0320 o         1 MOL     -0.459944
    118 C38         7.4410   -1.9810   -2.4290 c3        1 MOL     -0.181352
    119 C39         8.8990   -1.9360   -2.1520 ca        1 MOL      0.125089
    120 C40         9.6810   -0.9530   -2.8710 ca        1 MOL     -0.188640
    121 C41         9.5300   -2.7410   -1.2000 ca        1 MOL     -0.188640
    122 C42        11.0690   -0.9490   -2.5990 ca        1 MOL     -0.088141
    123 C43        10.8980   -2.7500   -0.9510 ca        1 MOL     -0.088141
    124 C44        11.6810   -1.8100   -1.7030 ca        1 MOL     -0.140724
    125 H51         4.9360   -2.2240   -2.4300 hn        1 MOL      0.284145
    126 H52         6.7530   -1.9740   -0.4220 h1        1 MOL      0.090007
    127 H53         7.2100   -1.5130   -3.3800 hc        1 MOL      0.066803
    128 H54         7.1890   -3.0110   -2.6590 hc        1 MOL      0.066803
    129 H55         9.1700   -0.2720   -3.5310 ha        1 MOL      0.126751
    130 H56         8.9180   -3.3830   -0.5840 ha        1 MOL      0.126751
    131 H57        11.5920   -0.1430   -3.0840 ha        1 MOL      0.111678
    132 H58        11.3500   -3.3230   -0.1540 ha        1 MOL      0.111678
    133 H59        12.7310   -1.6540   -1.5170 ha        1 MOL      0.106756
    134 N12         6.1590    1.0840   -1.8280 n         1 MOL     -0.074763
    135 C45         6.1550    2.5390   -1.5830 c3        1 MOL      0.018269
    136 C46         5.5430    2.8740   -0.1930 c         1 MOL      0.231600
    137 O20         5.9670    3.8350    0.5150 o         1 MOL     -0.506682
    138 C47         5.2600    3.1170   -2.6240 c3        1 MOL      0.167032
    139 C48         5.3400    2.2370   -3.8440 c3        1 MOL     -0.250681
    140 C49         5.5710    0.8540   -3.1270 c3        1 MOL      0.093076
    141 H60         7.0970    3.0920   -1.6710 h1        1 MOL      0.053797
    142 H61         4.2640    3.3260   -2.2330 hc        1 MOL     -0.002778
    143 H62         5.5870    4.1310   -2.8720 hc        1 MOL     -0.002778
    144 H63         4.3590    2.3020   -4.2990 hc        1 MOL      0.078670
    145 H64         6.1220    2.4520   -4.5650 hc        1 MOL      0.078670
    146 H65         4.6300    0.3050   -3.1910 h1        1 MOL     -0.000705
    147 H66         6.3240    0.2370   -3.6240 h1        1 MOL     -0.000705
    148 N13         4.4730    2.2190    0.2690 n         1 MOL      0.010232
    149 C50         3.8020    2.4430    1.5520 c3        1 MOL     -0.143353
    150 C51         4.6330    1.8060    2.6500 c         1 MOL      0.428176
    151 O21         4.6760    2.3510    3.7740 o         1 MOL     -0.588350
    152 C52         2.4200    1.7700    1.5670 c3        1 MOL     -0.026602
    153 C53         1.4580    2.4450    0.5740 c3        1 MOL      0.041100
    154 C54         0.2110    1.5580    0.3710 c         1 MOL      0.633021
    155 O22        -0.7740    2.0600   -0.2490 o         1 MOL     -0.718539
    156 O23         0.1830    0.3990    0.8210 o         1 MOL     -0.718539
    157 H67         4.1530    1.3830   -0.1910 hn        1 MOL      0.105317
    158 H68         3.6680    3.5130    1.7600 h1        1 MOL      0.119484
    159 H69         1.9790    1.8660    2.5610 hc        1 MOL      0.051409
    160 H70         2.5590    0.7160    1.3590 hc        1 MOL      0.051409
    161 H71         1.9900    2.6190   -0.3680 hc        1 MOL     -0.000181
    162 H72         1.1510    3.4340    0.8920 hc        1 MOL     -0.000181
    163 N14         5.4510    0.7970    2.3960 n         1 MOL      0.118729
    164 C55         6.4070    0.2050    3.2470 c3        1 MOL     -0.237170
    165 H73         7.2250    0.9060    3.4160 h1        1 MOL      0.071052
    166 H74         5.9400   -0.0460    4.2000 h1        1 MOL      0.071052
    167 H75         6.7960   -0.7010    2.7820 h1        1 MOL      0.071052
    168 H76         5.5100    0.5140    1.4260 hn        1 MOL      0.001213
    169 Ca1        -2.1940   -0.0810   -0.1870 Ca        1 MOL      1.668210
    170 O24        -4.7400   -0.6500    1.1640 oh        1 MOL     -0.863986
    171 H77        -4.8680   -0.9470    2.0700 ho        1 MOL      0.408645
    172 H78        -4.7820    0.3030    1.2200 ho        1 MOL      0.408645
    173 O25        -2.2170    0.1800    2.5890 oh        1 MOL     -0.863986
    174 H79        -2.4000    0.7460    3.3440 ho        1 MOL      0.408645
    175 H80        -1.4190   -0.2940    2.8250 ho        1 MOL      0.408645
@<TRIPOS>BOND
     1    1    2 1   
     2    1    4 1   
     3    1    5 1   
     4    1    6 1   
     5    2    3 2   
     6    2    7 1   
     7    7    8 1   
     8    7   15 1   
     9    8    9 1   
    10    8   11 1   
    11    8   16 1   
    12    9   10 2   
    13    9   19 1   
    14   11   12 1   
    15   11   17 1   
    16   11   18 1   
    17   12   13 1   
    18   12   14 1   
    19   19   20 1   
    20   19   24 1   
    21   20   21 1   
    22   20   23 1   
    23   20   25 1   
    24   21   22 2   
    25   21   29 1   
    26   23   26 1   
    27   23   27 1   
    28   23   28 1   
    29   29   30 1   
    30   29   37 1   
    31   30   31 1   
    32   30   33 1   
    33   30   38 1   
    34   31   32 2   
    35   31   41 1   
    36   33   34 1   
    37   33   39 1   
    38   33   40 1   
    39   34   35 1   
    40   34   36 1   
    41   41   42 1   
    42   41   45 1   
    43   42   43 1   
    44   42   46 1   
    45   42   47 1   
    46   43   44 2   
    47   43   48 1   
    48   48   49 1   
    49   48   56 1   
    50   49   50 1   
    51   49   52 1   
    52   49   57 1   
    53   50   51 2   
    54   50   62 1   
    55   52   53 1   
    56   52   58 1   
    57   52   59 1   
    58   53   54 1   
    59   53   55 2   
    60   54   60 1   
    61   54   61 1   
    62   62   63 1   
    63   62   66 1   
    64   63   64 1   
    65   63   67 1   
    66   63   68 1   
    67   64   65 2   
    68   64   69 1   
    69   69   70 1   
    70   69   76 1   
    71   70   71 1   
    72   70   73 1   
    73   70   77 1   
    74   71   72 2   
    75   71   83 1   
    76   73   74 1   
    77   73   75 1   
    78   73   78 1   
    79   74   80 1   
    80   74   81 1   
    81   74   82 1   
    82   75   79 1   
    83   83   84 1   
    84   83   91 1   
    85   84   85 1   
    86   84   87 1   
    87   84   92 1   
    88   85   86 2   
    89   85  102 1   
    90   87   88 1   
    91   87   89 1   
    92   87   93 1   
    93   88   90 1   
    94   88   94 1   
    95   88   95 1   
    96   89   96 1   
    97   89   97 1   
    98   89   98 1   
    99   90   99 1   
   100   90  100 1   
   101   90  101 1   
   102  102  103 1   
   103  102  110 1   
   104  103  104 1   
   105  103  106 1   
   106  103  111 1   
   107  104  105 2   
   108  104  114 1   
   109  106  107 1   
   110  106  112 1   
   111  106  113 1   
   112  107  108 1   
   113  107  109 1   
   114  114  115 1   
   115  114  125 1   
   116  115  116 1   
   117  115  118 1   
   118  115  126 1   
   119  116  117 2   
   120  116  134 1   
   121  118  119 1   
   122  118  127 1   
   123  118  128 1   
   124  119  120 ar  
   125  119  121 ar  
   126  120  122 ar  
   127  120  129 1   
   128  121  123 ar  
   129  121  130 1   
   130  122  124 ar  
   131  122  131 1   
   132  123  124 ar  
   133  123  132 1   
   134  124  133 1   
   135  134  135 1   
   136  134  140 1   
   137  135  136 1   
   138  135  138 1   
   139  135  141 1   
   140  136  137 2   
   141  136  148 1   
   142  138  139 1   
   143  138  142 1   
   144  138  143 1   
   145  139  140 1   
   146  139  144 1   
   147  139  145 1   
   148  140  146 1   
   149  140  147 1   
   150  148  149 1   
   151  148  157 1   
   152  149  150 1   
   153  149  152 1   
   154  149  158 1   
   155  150  151 2   
   156  150  163 1   
   157  152  153 1   
   158  152  159 1   
   159  152  160 1   
   160  153  154 1   
   161  153  161 1   
   162  153  162 1   
   163  154  155 1   
   164  154  156 1   
   165  163  164 1   
   166  163  168 1   
   167  164  165 1   
   168  164  166 1   
   169  164  167 1   
   170  170  171 1   
   171  170  172 1   
   172  173  174 1   
   173  173  175 1   
@<TRIPOS>SUBSTRUCTURE
     1 MOL         1 TEMP              0 ****  ****    0 ROOT
