@<TRIPOS>MOLECULE
MOL
  189   185     1     0     0
SMALL
resp


@<TRIPOS>ATOM
      1 C1         -0.4150   -2.9710    6.3150 c3        1 MOL     -0.362811
      2 C2          0.3860   -2.5850    5.0610 c         1 MOL      0.741291
      3 O1          0.6660   -1.4550    4.8230 o         1 MOL     -0.600813
      4 H1         -1.3780   -2.4600    6.3010 hc        1 MOL      0.084843
      5 H2         -0.5770   -4.0490    6.3260 hc        1 MOL      0.084843
      6 H3          0.1390   -2.6770    7.2060 hc        1 MOL      0.084843
      7 N1          0.6960   -3.5740    4.2340 n         1 MOL     -0.623798
      8 C3          1.4140   -3.4090    2.9360 c3        1 MOL      0.258578
      9 C4          1.0870   -4.5640    1.9420 c         1 MOL      0.419758
     10 O2          0.9070   -5.6860    2.4140 o         1 MOL     -0.575071
     11 C5          2.9370   -3.5290    3.3330 c3        1 MOL     -0.174764
     12 C6          3.8580   -3.3740    2.1010 c         1 MOL      0.640982
     13 O3          4.8390   -4.1350    2.0660 o         1 MOL     -0.632908
     14 O4          3.6260   -2.5160    1.1920 o         1 MOL     -0.632908
     15 H4          0.6470   -4.5370    4.5170 hn        1 MOL      0.315013
     16 H5          1.1780   -2.4260    2.5380 h1        1 MOL     -0.064961
     17 H6          3.1990   -4.4660    3.8250 hc        1 MOL      0.038300
     18 H7          3.1940   -2.7560    4.0620 hc        1 MOL      0.038300
     19 N2          1.2780   -4.3890    0.5980 n         1 MOL     -0.033221
     20 C7          1.1500   -5.3780   -0.4000 c3        1 MOL     -0.048305
     21 C8          2.4980   -5.4930   -1.2330 c         1 MOL      0.411571
     22 O5          2.8310   -6.5120   -1.8370 o         1 MOL     -0.564167
     23 C9          0.0300   -4.9390   -1.3100 c3        1 MOL      0.089994
     24 C10        -1.3710   -5.0060   -0.7240 c3        1 MOL      0.175014
     25 C11        -0.0250   -5.6400   -2.7390 c3        1 MOL     -0.321980
     26 C12        -2.3680   -4.1270   -1.4300 c3        1 MOL     -0.329601
     27 H8          1.2790   -3.4330    0.2820 hn        1 MOL      0.103262
     28 H9          0.9310   -6.3500    0.0590 h1        1 MOL      0.060356
     29 H10         0.2080   -3.8830   -1.5290 hc        1 MOL      0.039388
     30 H11        -1.2420   -4.6330    0.2890 hc        1 MOL     -0.046137
     31 H12        -1.6590   -6.0500   -0.6150 hc        1 MOL     -0.046137
     32 H13        -0.2840   -6.6960   -2.6080 hc        1 MOL      0.074624
     33 H14        -0.7640   -5.2550   -3.4400 hc        1 MOL      0.074624
     34 H15         0.9140   -5.5400   -3.2840 hc        1 MOL      0.074624
     35 H16        -1.8490   -3.2170   -1.7330 hc        1 MOL      0.085976
     36 H17        -2.7850   -4.7430   -2.2260 hc        1 MOL      0.085976
     37 H18        -3.0930   -3.8740   -0.6550 hc        1 MOL      0.085976
     38 N3          3.2100   -4.3280   -1.3780 n         1 MOL     -0.100249
     39 C13         4.2330   -4.0920   -2.4210 c3        1 MOL      0.060435
     40 C14         5.6410   -3.6020   -1.9490 c         1 MOL      0.298651
     41 O6          6.5500   -3.5940   -2.7750 o         1 MOL     -0.528765
     42 C15         3.6270   -3.2830   -3.5130 c3        1 MOL     -0.229516
     43 C16         2.9320   -1.9760   -3.0540 c         1 MOL      0.713171
     44 O7          3.0810   -1.4910   -1.8810 o         1 MOL     -0.702674
     45 O8          2.2600   -1.3250   -3.9190 o         1 MOL     -0.702674
     46 H19         2.9350   -3.5220   -0.8290 hn        1 MOL      0.062242
     47 H20         4.4600   -5.0750   -2.8260 h1        1 MOL      0.080880
     48 H21         2.9610   -3.9770   -4.0290 hc        1 MOL      0.065027
     49 H22         4.3980   -3.0130   -4.2390 hc        1 MOL      0.065027
     50 N4          5.7450   -3.2590   -0.6700 n         1 MOL     -0.024968
     51 C17         6.9590   -2.6640   -0.0580 c3        1 MOL      0.038666
     52 C18         7.5120   -1.3470   -0.7510 c         1 MOL      0.213191
     53 O9          8.7760   -1.2570   -0.8380 o         1 MOL     -0.555909
     54 H23         4.9420   -3.3230   -0.0640 hn        1 MOL     -0.052803
     55 H24         7.7820   -3.3780    0.0770 h1        1 MOL      0.060229
     56 H25         6.7170   -2.4500    0.9780 h1        1 MOL      0.060229
     57 N5          6.7350   -0.4520   -1.3570 n         1 MOL      0.054641
     58 C19         7.1550    0.7790   -2.0900 c3        1 MOL     -0.111410
     59 C20         7.6120    1.8980   -1.1740 c         1 MOL      0.519907
     60 O10         8.3560    2.7560   -1.6020 o         1 MOL     -0.563036
     61 C21         6.0930    1.2050   -3.0890 c3        1 MOL     -0.214040
     62 C22         4.7680    1.5280   -2.3190 c         1 MOL      0.778547
     63 O11         4.6640    1.3000   -1.0550 o         1 MOL     -0.683665
     64 O12         3.8200    1.9990   -2.9810 o         1 MOL     -0.683665
     65 H26         5.7380   -0.5960   -1.2830 hn        1 MOL      0.102213
     66 H27         7.9490    0.4080   -2.7450 h1        1 MOL      0.112553
     67 H28         5.9050    0.3890   -3.7960 hc        1 MOL      0.078104
     68 H29         6.4590    2.0820   -3.6180 hc        1 MOL      0.078104
     69 N6          7.1810    1.9510    0.0840 n         1 MOL     -0.404570
     70 C23         7.4860    3.1170    0.9660 c3        1 MOL      0.051464
     71 C24         6.2490    3.8020    1.4000 c         1 MOL      0.392081
     72 O13         6.4500    4.8370    2.0440 o         1 MOL     -0.600678
     73 H30         6.4080    1.3400    0.3180 hn        1 MOL      0.228849
     74 H31         8.0230    3.8840    0.4030 h1        1 MOL      0.065614
     75 H32         8.1010    2.8320    1.8210 h1        1 MOL      0.065614
     76 N7          5.0780    3.5410    0.8280 n         1 MOL     -0.124470
     77 C25         3.8670    4.3900    0.9110 c3        1 MOL     -0.035191
     78 C26         2.6210    3.5150    1.1580 c         1 MOL      0.451049
     79 O14         2.7450    2.3090    1.1580 o         1 MOL     -0.574007
     80 C27         3.6970    5.1200   -0.4470 c3        1 MOL      0.187389
     81 C28         4.6860    6.3190   -0.5220 c3        1 MOL     -0.474032
     82 C29         4.2950    7.2900   -1.6130 c         1 MOL      0.636633
     83 N8          5.0390    7.4300   -2.6720 n         1 MOL     -0.663369
     84 O15         3.2760    7.9330   -1.6090 o         1 MOL     -0.567358
     85 H33         4.8950    2.6710    0.3390 hn        1 MOL      0.122539
     86 H34         3.9270    5.0990    1.7430 h1        1 MOL      0.065542
     87 H35         2.7030    5.5760   -0.5340 hc        1 MOL      0.023525
     88 H36         3.8660    4.4380   -1.2710 hc        1 MOL      0.023525
     89 H37         5.6860    5.9160   -0.6730 hc        1 MOL      0.144920
     90 H38         4.8190    6.8390    0.4320 hc        1 MOL      0.144920
     91 H39         6.0010    7.1160   -2.6800 hn        1 MOL      0.312300
     92 H40         4.7370    8.1070   -3.3620 hn        1 MOL      0.312300
     93 N9          1.4930    4.1100    1.3670 n         1 MOL     -0.427782
     94 C30         0.2500    3.3910    1.5640 c3        1 MOL     -0.016978
     95 C31        -0.7990    3.6640    0.4680 c         1 MOL      0.504554
     96 O16        -1.1380    4.8530    0.2780 o         1 MOL     -0.586786
     97 C32        -0.3020    3.8780    2.9570 c3        1 MOL      0.412126
     98 C33        -1.4680    3.0830    3.5140 c3        1 MOL     -0.268035
     99 C34         0.6990    3.9440    4.0700 c3        1 MOL     -0.268035
    100 H41         1.4910    5.1170    1.2740 hn        1 MOL      0.273521
    101 H42         0.4660    2.3220    1.6250 h1        1 MOL      0.159354
    102 H43        -0.6560    4.8910    2.8150 hc        1 MOL     -0.068096
    103 H44        -1.2240    2.0360    3.7030 hc        1 MOL      0.041278
    104 H45        -1.7950    3.5400    4.4440 hc        1 MOL      0.041278
    105 H46        -2.2890    3.1770    2.8000 hc        1 MOL      0.041278
    106 H47         1.1750    3.0050    4.3450 hc        1 MOL      0.041278
    107 H48         1.4100    4.7590    3.9410 hc        1 MOL      0.041278
    108 H49         0.2980    4.2940    5.0200 hc        1 MOL      0.041278
    109 N10        -1.3850    2.6380   -0.0830 n         1 MOL     -0.321006
    110 C35        -2.4430    2.6830   -1.0540 c3        1 MOL      0.274596
    111 C36        -3.7190    2.3190   -0.2680 c         1 MOL      0.334068
    112 O17        -3.6570    1.6410    0.7740 o         1 MOL     -0.295898
    113 C37        -2.1530    1.7070   -2.2200 c3        1 MOL     -0.339986
    114 C38        -3.2920    1.7510   -3.2810 c         1 MOL      0.704762
    115 N11        -3.6530    2.8600   -3.8150 n         1 MOL     -0.745583
    116 O18        -3.9470    0.7680   -3.5800 o         1 MOL     -0.549713
    117 H50        -1.0900    1.7150    0.2100 hn        1 MOL      0.163079
    118 H51        -2.4990    3.7420   -1.3220 h1        1 MOL     -0.016258
    119 H52        -2.1630    0.6820   -1.8540 hc        1 MOL      0.124871
    120 H53        -1.2250    1.8710   -2.7700 hc        1 MOL      0.124871
    121 H54        -3.1330    3.6750   -3.5210 hn        1 MOL      0.347742
    122 H55        -4.4170    2.8400   -4.4730 hn        1 MOL      0.347742
    123 N12        -4.8690    2.6240   -0.8960 n         1 MOL     -0.444196
    124 C39        -6.2150    2.3260   -0.4400 c3        1 MOL      0.323306
    125 C40        -6.3930    0.8620   -0.0020 c         1 MOL      0.370030
    126 O19        -7.0130    0.5830    1.0240 o         1 MOL     -0.544536
    127 C41        -7.2120    2.6410   -1.5700 c3        1 MOL     -0.269978
    128 C42        -8.6650    2.4620   -1.1620 ca        1 MOL     -0.022799
    129 C43        -9.3390    3.4230   -0.3570 ca        1 MOL     -0.026023
    130 C44        -9.4490    1.4000   -1.7110 ca        1 MOL     -0.026023
    131 C45       -10.6900    3.3830   -0.1060 ca        1 MOL     -0.389804
    132 C46       -10.8120    1.2760   -1.3230 ca        1 MOL     -0.389804
    133 C47       -11.3970    2.2180   -0.4080 ca        1 MOL      0.461814
    134 O20       -12.6930    2.0110   -0.0370 oh        1 MOL     -0.550163
    135 H56        -4.8950    3.0260   -1.8180 hn        1 MOL      0.194912
    136 H57        -6.5100    2.8900    0.4400 h1        1 MOL     -0.003209
    137 H58        -6.9590    1.9810   -2.4000 hc        1 MOL      0.089521
    138 H59        -7.0760    3.7110   -1.7320 hc        1 MOL      0.089521
    139 H60        -8.8230    4.3410   -0.1190 ha        1 MOL      0.105198
    140 H61        -8.9650    0.7050   -2.3800 ha        1 MOL      0.105198
    141 H62       -11.1530    4.1890    0.4480 ha        1 MOL      0.169257
    142 H63       -11.3480    0.3770   -1.5790 ha        1 MOL      0.169257
    143 H64       -12.9340    1.1410   -0.3630 ho        1 MOL      0.385437
    144 N13        -5.8960   -0.1170   -0.7940 n         1 MOL     -0.073740
    145 C48        -6.0140   -1.5850   -0.4660 c3        1 MOL     -0.127058
    146 C49        -5.0900   -2.1070    0.6870 c         1 MOL      0.435268
    147 O21        -5.1120   -3.2820    1.0260 o         1 MOL     -0.526924
    148 C50        -5.8980   -2.4520   -1.6980 c3        1 MOL      0.101168
    149 C51        -7.0730   -2.1420   -2.6150 c3        1 MOL     -0.121147
    150 C52        -7.0890   -3.0910   -3.8410 c         1 MOL      0.645908
    151 O22        -6.5930   -2.6560   -4.9740 o         1 MOL     -0.730735
    152 O23        -7.6930   -4.1700   -3.7470 o         1 MOL     -0.730735
    153 H65        -5.2340    0.0980   -1.5220 hn        1 MOL      0.162127
    154 H66        -7.0590   -1.6510   -0.1550 h1        1 MOL      0.097141
    155 H67        -5.9780   -3.4960   -1.4120 hc        1 MOL      0.011019
    156 H68        -4.9710   -2.3460   -2.2610 hc        1 MOL      0.011019
    157 H69        -6.9900   -1.1450   -3.0470 hc        1 MOL     -0.002568
    158 H70        -8.0010   -2.3160   -2.0750 hc        1 MOL     -0.002568
    159 N14        -4.3240   -1.2260    1.3520 n         1 MOL     -0.045831
    160 C53        -3.5520   -1.6040    2.5530 c3        1 MOL     -0.052914
    161 C54        -4.1190   -0.8470    3.7690 c         1 MOL      0.419971
    162 O24        -4.4450   -1.4530    4.7800 o         1 MOL     -0.538330
    163 C55        -1.9890   -1.2670    2.4370 c3        1 MOL     -0.022233
    164 C56        -1.3410   -2.0000    1.2450 c3        1 MOL      0.138145
    165 C57        -0.2070   -1.1320    0.6540 c         1 MOL      0.739721
    166 O25         0.7310   -1.7990    0.1070 o         1 MOL     -0.721523
    167 O26        -0.1650    0.1170    0.7260 o         1 MOL     -0.721523
    168 H71        -4.3350   -0.2830    1.0000 hn        1 MOL     -0.052949
    169 H72        -3.5940   -2.6890    2.6980 h1        1 MOL      0.092845
    170 H73        -1.5580   -1.7480    3.3180 hc        1 MOL      0.013478
    171 H74        -1.7790   -0.2000    2.5190 hc        1 MOL      0.013478
    172 H75        -2.0660   -2.2000    0.4550 hc        1 MOL     -0.044773
    173 H76        -0.9500   -2.9370    1.6510 hc        1 MOL     -0.044773
    174 N15        -4.5730    0.4330    3.6200 n         1 MOL     -0.095993
    175 C58        -5.3840    1.2350    4.5730 c3        1 MOL     -0.255119
    176 H77        -6.2150    0.6320    4.9390 h1        1 MOL      0.095801
    177 H78        -4.7610    1.5420    5.4130 h1        1 MOL      0.095801
    178 H79        -5.7720    2.1190    4.0670 h1        1 MOL      0.095801
    179 H80        -4.3750    0.8960    2.7410 hn        1 MOL      0.124840
    180 Ca1         2.6600   -0.1220    0.2740 Ca        1 MOL      1.774033
    181 O27         1.7180    0.3370    3.0060 oh        1 MOL     -0.903165
    182 H81         2.3250    0.8630    3.5350 ho        1 MOL      0.426344
    183 H82         1.0670    0.0230    3.6330 ho        1 MOL      0.426344
    184 O28         1.6590    0.8370   -2.0070 oh        1 MOL     -0.903165
    185 H83         1.4600    0.0610   -2.5430 ho        1 MOL      0.426344
    186 H84         2.3530    1.2800   -2.4940 ho        1 MOL      0.426344
    187 O29         4.6550    0.3780    2.1720 oh        1 MOL     -0.903165
    188 H85         4.2010    0.5730    2.9890 ho        1 MOL      0.426344
    189 H86         5.5780    0.3350    2.4140 ho        1 MOL      0.426344
@<TRIPOS>BOND
     1    1    2 1   
     2    1    4 1   
     3    1    5 1   
     4    1    6 1   
     5    2    3 2   
     6    2    7 1   
     7    7    8 1   
     8    7   15 1   
     9    8    9 1   
    10    8   11 1   
    11    8   16 1   
    12    9   10 2   
    13    9   19 1   
    14   11   12 1   
    15   11   17 1   
    16   11   18 1   
    17   12   13 1   
    18   12   14 1   
    19   19   20 1   
    20   19   27 1   
    21   20   21 1   
    22   20   23 1   
    23   20   28 1   
    24   21   22 2   
    25   21   38 1   
    26   23   24 1   
    27   23   25 1   
    28   23   29 1   
    29   24   26 1   
    30   24   30 1   
    31   24   31 1   
    32   25   32 1   
    33   25   33 1   
    34   25   34 1   
    35   26   35 1   
    36   26   36 1   
    37   26   37 1   
    38   38   39 1   
    39   38   46 1   
    40   39   40 1   
    41   39   42 1   
    42   39   47 1   
    43   40   41 2   
    44   40   50 1   
    45   42   43 1   
    46   42   48 1   
    47   42   49 1   
    48   43   44 1   
    49   43   45 1   
    50   50   51 1   
    51   50   54 1   
    52   51   52 1   
    53   51   55 1   
    54   51   56 1   
    55   52   53 2   
    56   52   57 1   
    57   57   58 1   
    58   57   65 1   
    59   58   59 1   
    60   58   61 1   
    61   58   66 1   
    62   59   60 2   
    63   59   69 1   
    64   61   62 1   
    65   61   67 1   
    66   61   68 1   
    67   62   63 1   
    68   62   64 1   
    69   69   70 1   
    70   69   73 1   
    71   70   71 1   
    72   70   74 1   
    73   70   75 1   
    74   71   72 2   
    75   71   76 1   
    76   76   77 1   
    77   76   85 1   
    78   77   78 1   
    79   77   80 1   
    80   77   86 1   
    81   78   79 2   
    82   78   93 1   
    83   80   81 1   
    84   80   87 1   
    85   80   88 1   
    86   81   82 1   
    87   81   89 1   
    88   81   90 1   
    89   82   83 1   
    90   82   84 2   
    91   83   91 1   
    92   83   92 1   
    93   93   94 1   
    94   93  100 1   
    95   94   95 1   
    96   94   97 1   
    97   94  101 1   
    98   95   96 2   
    99   95  109 1   
   100   97   98 1   
   101   97   99 1   
   102   97  102 1   
   103   98  103 1   
   104   98  104 1   
   105   98  105 1   
   106   99  106 1   
   107   99  107 1   
   108   99  108 1   
   109  109  110 1   
   110  109  117 1   
   111  110  111 1   
   112  110  113 1   
   113  110  118 1   
   114  111  112 2   
   115  111  123 1   
   116  113  114 1   
   117  113  119 1   
   118  113  120 1   
   119  114  115 1   
   120  114  116 2   
   121  115  121 1   
   122  115  122 1   
   123  123  124 1   
   124  123  135 1   
   125  124  125 1   
   126  124  127 1   
   127  124  136 1   
   128  125  126 2   
   129  125  144 1   
   130  127  128 1   
   131  127  137 1   
   132  127  138 1   
   133  128  129 ar  
   134  128  130 ar  
   135  129  131 ar  
   136  129  139 1   
   137  130  132 ar  
   138  130  140 1   
   139  131  133 ar  
   140  131  141 1   
   141  132  133 ar  
   142  132  142 1   
   143  133  134 1   
   144  134  143 1   
   145  144  145 1   
   146  144  153 1   
   147  145  146 1   
   148  145  148 1   
   149  145  154 1   
   150  146  147 2   
   151  146  159 1   
   152  148  149 1   
   153  148  155 1   
   154  148  156 1   
   155  149  150 1   
   156  149  157 1   
   157  149  158 1   
   158  150  151 1   
   159  150  152 1   
   160  159  160 1   
   161  159  168 1   
   162  160  161 1   
   163  160  163 1   
   164  160  169 1   
   165  161  162 2   
   166  161  174 1   
   167  163  164 1   
   168  163  170 1   
   169  163  171 1   
   170  164  165 1   
   171  164  172 1   
   172  164  173 1   
   173  165  166 1   
   174  165  167 1   
   175  174  175 1   
   176  174  179 1   
   177  175  176 1   
   178  175  177 1   
   179  175  178 1   
   180  181  182 1   
   181  181  183 1   
   182  184  185 1   
   183  184  186 1   
   184  187  188 1   
   185  187  189 1   
@<TRIPOS>SUBSTRUCTURE
     1 MOL         1 TEMP              0 ****  ****    0 ROOT
