@<TRIPOS>MOLECULE
MOL
  183   181     1     0     0
SMALL
resp


@<TRIPOS>ATOM
      1 C1         -0.3000    2.1410    6.2200 c3        1 MOL     -0.233960
      2 C2         -0.7230    2.1050    4.7250 c         1 MOL      0.774118
      3 O1         -0.0300    2.5120    3.8780 o         1 MOL     -0.587900
      4 H1          0.5200    2.8480    6.3480 hc        1 MOL      0.045182
      5 H2         -1.1470    2.4540    6.8310 hc        1 MOL      0.045182
      6 H3          0.0260    1.1490    6.5300 hc        1 MOL      0.045182
      7 N1         -1.9070    1.4840    4.4370 n         1 MOL     -0.739392
      8 C3         -2.5360    1.5600    3.0750 c3        1 MOL      0.445985
      9 C4         -3.0790    2.9980    2.8160 c         1 MOL      0.484936
     10 O2         -3.4480    3.6640    3.7620 o         1 MOL     -0.578715
     11 C5         -3.6750    0.5490    3.0900 c3        1 MOL     -0.396959
     12 C6         -4.3090    0.1110    1.7620 c         1 MOL      0.789734
     13 O3         -5.2320   -0.7430    1.7930 o         1 MOL     -0.682910
     14 O4         -3.8990    0.6090    0.6680 o         1 MOL     -0.682910
     15 H4         -2.3670    0.8620    5.0910 hn        1 MOL      0.315650
     16 H5         -1.7450    1.2380    2.3890 h1        1 MOL      0.011301
     17 H6         -4.4360    0.9750    3.7500 hc        1 MOL      0.080350
     18 H7         -3.3300   -0.4260    3.4130 hc        1 MOL      0.080350
     19 N2         -3.1850    3.3420    1.5320 n         1 MOL     -0.139579
     20 C7         -3.3630    4.7740    1.1140 c3        1 MOL     -0.129984
     21 C8         -4.5590    4.8150    0.1040 c         1 MOL      0.525031
     22 O5         -5.3740    5.7210    0.1370 o         1 MOL     -0.572465
     23 C9         -2.0110    5.1940    0.4990 c3        1 MOL      0.019208
     24 C10        -0.9480    5.3700    1.6130 c3        1 MOL      0.186057
     25 C11        -2.1440    6.5500   -0.2280 c3        1 MOL     -0.168701
     26 C12         0.4680    5.8170    1.1130 c3        1 MOL     -0.279555
     27 H8         -3.0550    2.6810    0.7840 hn        1 MOL     -0.102611
     28 H9         -3.6140    5.3500    2.0010 h1        1 MOL      0.106981
     29 H10        -1.6500    4.4870   -0.2480 hc        1 MOL      0.089749
     30 H11        -0.7270    4.4320    2.1180 hc        1 MOL     -0.025632
     31 H12        -1.3300    6.0230    2.4010 hc        1 MOL     -0.025632
     32 H13        -2.5150    7.3800    0.3640 hc        1 MOL      0.033898
     33 H14        -1.1940    6.8970   -0.6310 hc        1 MOL      0.033898
     34 H15        -2.6890    6.5420   -1.1690 hc        1 MOL      0.033898
     35 H16         1.2640    5.2410    1.5850 hc        1 MOL      0.059573
     36 H17         0.5270    5.5300    0.0650 hc        1 MOL      0.059573
     37 H18         0.6920    6.8690    1.2840 hc        1 MOL      0.059573
     38 N3         -4.6530    3.8230   -0.7910 n         1 MOL     -0.410095
     39 C13        -5.6220    3.6260   -1.8270 c3        1 MOL      0.123902
     40 C14        -6.6640    2.5700   -1.4450 c         1 MOL      0.400132
     41 O6         -7.7230    2.5690   -2.0580 o         1 MOL     -0.552434
     42 C15        -4.9620    3.4090   -3.1610 c3        1 MOL     -0.262470
     43 C16        -3.9870    2.2320   -3.2300 c         1 MOL      0.762640
     44 O7         -3.3570    2.0250   -4.2900 o         1 MOL     -0.691246
     45 O8         -3.7570    1.5470   -2.2220 o         1 MOL     -0.691246
     46 H19        -3.9150    3.1430   -0.8420 hn        1 MOL      0.352410
     47 H20        -6.1230    4.5770   -1.9680 h1        1 MOL      0.070502
     48 H21        -4.3460    4.2320   -3.5180 hc        1 MOL      0.061193
     49 H22        -5.7430    3.3280   -3.9210 hc        1 MOL      0.061193
     50 N4         -6.4590    1.8590   -0.4090 n         1 MOL     -0.136552
     51 C17        -7.5290    1.2100    0.3500 c3        1 MOL     -0.138794
     52 C18        -8.0250   -0.0560   -0.2560 c         1 MOL      0.427504
     53 O9         -9.2410   -0.3280   -0.3670 o         1 MOL     -0.595440
     54 H23        -5.5380    1.7350   -0.0170 hn        1 MOL      0.155450
     55 H24        -8.4110    1.8480    0.4520 h1        1 MOL      0.091523
     56 H25        -7.2020    1.0310    1.3780 h1        1 MOL      0.091523
     57 N5         -7.1040   -0.8340   -0.8080 n         1 MOL     -0.060621
     58 C19        -7.2870   -2.1160   -1.4290 c3        1 MOL      0.039137
     59 C20        -7.2460   -3.2790   -0.4560 c         1 MOL      0.394391
     60 O10        -7.4770   -4.4290   -0.8890 o         1 MOL     -0.528575
     61 C21        -6.2570   -2.3400   -2.5540 c3        1 MOL     -0.403347
     62 C22        -4.8110   -2.1070   -2.2320 c         1 MOL      0.923317
     63 O11        -3.9690   -1.9760   -3.1100 o         1 MOL     -0.785508
     64 O12        -4.3860   -2.0030   -1.0770 o         1 MOL     -0.785508
     65 H26        -6.1860   -0.4980   -0.5700 hn        1 MOL      0.045060
     66 H27        -8.3110   -2.0950   -1.7820 h1        1 MOL      0.092276
     67 H28        -6.5880   -1.5830   -3.2660 hc        1 MOL      0.101833
     68 H29        -6.2920   -3.3650   -2.9070 hc        1 MOL      0.101833
     69 N6         -6.8440   -2.9640    0.8260 n         1 MOL     -0.273673
     70 C23        -6.5720   -3.9520    1.8590 c3        1 MOL     -0.279341
     71 C24        -5.1590   -4.5540    1.8980 c         1 MOL      0.575312
     72 O13        -4.8720   -5.4820    2.6790 o         1 MOL     -0.608076
     73 H30        -6.5280   -2.0450    1.0980 hn        1 MOL      0.275518
     74 H31        -7.2870   -4.7660    1.6740 h1        1 MOL      0.114665
     75 H32        -6.6930   -3.4900    2.8370 h1        1 MOL      0.114665
     76 N7         -4.2410   -4.0070    1.0820 n         1 MOL     -0.265847
     77 C25        -2.8300   -4.5260    1.0790 c3        1 MOL      0.029448
     78 C26        -1.8550   -3.3350    1.2920 c         1 MOL      0.502957
     79 O14        -2.1820   -2.1620    1.1120 o         1 MOL     -0.587848
     80 C27        -2.4760   -5.3970   -0.0960 c3        1 MOL     -0.035622
     81 C28        -2.5980   -4.8240   -1.5300 c3        1 MOL     -0.072390
     82 C29        -1.5670   -3.8850   -2.0980 c         1 MOL      0.651448
     83 N8         -0.9410   -4.2500   -3.1850 n         1 MOL     -0.688287
     84 O15        -1.2840   -2.7970   -1.6240 o         1 MOL     -0.674005
     85 H33        -4.4930   -3.2520    0.4570 hn        1 MOL      0.327391
     86 H34        -2.6930   -5.1380    1.9760 h1        1 MOL      0.039812
     87 H35        -3.2110   -6.2030   -0.0090 hc        1 MOL      0.014439
     88 H36        -1.4800   -5.8320   -0.0660 hc        1 MOL      0.014439
     89 H37        -3.5480   -4.3070   -1.6290 hc        1 MOL      0.022357
     90 H38        -2.6570   -5.6750   -2.2010 hc        1 MOL      0.022357
     91 H39        -1.0990   -5.1360   -3.6430 hn        1 MOL      0.335432
     92 H40        -0.4610   -3.4860   -3.6440 hn        1 MOL      0.335432
     93 N9         -0.6150   -3.6860    1.5590 n         1 MOL     -0.378663
     94 C30         0.5850   -2.7130    1.7620 c3        1 MOL     -0.026648
     95 C31         1.6300   -3.0820    0.7450 c         1 MOL      0.494901
     96 O16         2.2600   -4.1290    0.8920 o         1 MOL     -0.567487
     97 C32         1.1010   -2.7020    3.2270 c3        1 MOL      0.118788
     98 C33         2.4800   -2.0390    3.3930 c3        1 MOL     -0.228115
     99 C34         0.1700   -1.8270    4.0570 c3        1 MOL     -0.228115
    100 H41        -0.3640   -4.6440    1.7480 hn        1 MOL      0.261549
    101 H42         0.2880   -1.6870    1.5510 h1        1 MOL      0.130407
    102 H43         1.1400   -3.7340    3.5560 hc        1 MOL      0.006727
    103 H44         2.5160   -0.9910    3.0890 hc        1 MOL      0.051249
    104 H45         2.6660   -2.1200    4.4600 hc        1 MOL      0.051249
    105 H46         3.2550   -2.6860    2.9710 hc        1 MOL      0.051249
    106 H47        -0.8880   -2.0210    3.8540 hc        1 MOL      0.051249
    107 H48         0.2660   -1.9860    5.1280 hc        1 MOL      0.051249
    108 H49         0.2850   -0.7860    3.7310 hc        1 MOL      0.051249
    109 N10         1.9090   -2.2420   -0.3390 n         1 MOL     -0.262292
    110 C35         3.1940   -2.2960   -1.2080 c3        1 MOL      0.167714
    111 C36         4.4830   -1.9920   -0.4280 c         1 MOL      0.441221
    112 O17         4.4270   -1.3320    0.5990 o         1 MOL     -0.303936
    113 C37         3.0150   -1.5760   -2.5250 c3        1 MOL     -0.498051
    114 C38         1.9050   -2.1620   -3.3320 c         1 MOL      0.795275
    115 N11         1.0020   -1.2960   -3.7480 n         1 MOL     -0.852231
    116 O18         1.7810   -3.3600   -3.5680 o         1 MOL     -0.590074
    117 H50         1.2980   -1.4680   -0.5780 hn        1 MOL      0.219305
    118 H51         3.3700   -3.3570   -1.4030 h1        1 MOL      0.021861
    119 H52         3.9820   -1.5390   -3.0260 hc        1 MOL      0.127510
    120 H53         2.7750   -0.5370   -2.2900 hc        1 MOL      0.127510
    121 H54         1.1640   -0.3230   -3.5370 hn        1 MOL      0.387445
    122 H55         0.1850   -1.4950   -4.3170 hn        1 MOL      0.387445
    123 N12         5.6770   -2.5100   -0.7870 n         1 MOL     -0.629363
    124 C39         6.9880   -1.9970   -0.3740 c3        1 MOL      0.360007
    125 C40         7.0590   -0.4270   -0.2870 c         1 MOL      0.569149
    126 O19         7.4130    0.1450    0.7440 o         1 MOL     -0.519159
    127 C41         8.1530   -2.6290   -1.1380 c3        1 MOL     -0.185807
    128 C42         9.5460   -2.1650   -0.5420 ca        1 MOL      0.068497
    129 C43         9.8130   -2.4050    0.7850 ca        1 MOL     -0.184684
    130 C44        10.3780   -1.4660   -1.3450 ca        1 MOL     -0.184684
    131 C45        11.0340   -1.8800    1.3230 ca        1 MOL     -0.259217
    132 C46        11.4660   -0.7740   -0.7850 ca        1 MOL     -0.259217
    133 C47        11.8020   -0.9640    0.5900 ca        1 MOL      0.356949
    134 O20        12.9560   -0.4060    1.1150 oh        1 MOL     -0.500004
    135 H56         5.6550   -3.0500   -1.6450 hn        1 MOL      0.306466
    136 H57         6.9950   -2.2870    0.6860 h1        1 MOL      0.014406
    137 H58         8.0910   -2.2660   -2.1650 hc        1 MOL      0.045259
    138 H59         8.0950   -3.7090   -1.0610 hc        1 MOL      0.045259
    139 H60         9.1590   -2.9420    1.4460 ha        1 MOL      0.147589
    140 H61        10.2750   -1.3620   -2.4150 ha        1 MOL      0.147589
    141 H62        11.3420   -2.0480    2.3410 ha        1 MOL      0.144341
    142 H63        12.1270   -0.2440   -1.4570 ha        1 MOL      0.144341
    143 H64        13.3190    0.1690    0.4300 ho        1 MOL      0.350583
    144 N13         6.6450    0.2800   -1.3450 n         1 MOL     -0.494058
    145 C48         6.4150    1.7330   -1.4520 c3        1 MOL      0.075483
    146 C49         5.7730    2.3200   -0.1660 c         1 MOL      0.370913
    147 O21         6.3140    3.2870    0.3060 o         1 MOL     -0.501697
    148 C50         5.6470    2.0580   -2.7420 c3        1 MOL     -0.109836
    149 C51         5.9370    3.4880   -3.0620 c3        1 MOL     -0.207453
    150 C52         5.2150    3.9840   -4.2980 c         1 MOL      0.767195
    151 O22         4.1340    4.6280   -4.1910 o         1 MOL     -0.759538
    152 O23         5.7400    3.7330   -5.3860 o         1 MOL     -0.759538
    153 H65         6.3570   -0.2510   -2.1550 hn        1 MOL      0.235165
    154 H66         7.4250    2.1520   -1.4990 h1        1 MOL      0.078032
    155 H67         4.5610    1.9180   -2.7450 hc        1 MOL      0.046018
    156 H68         6.0050    1.5020   -3.6030 hc        1 MOL      0.046018
    157 H69         7.0060    3.5960   -3.2090 hc        1 MOL      0.028119
    158 H70         5.7110    4.2440   -2.3090 hc        1 MOL      0.028119
    159 N14         4.6850    1.7120    0.2590 n         1 MOL     -0.095072
    160 C53         3.7070    2.1560    1.3270 c3        1 MOL     -0.163779
    161 C54         4.3040    1.7260    2.6890 c         1 MOL      0.456997
    162 O24         4.2490    2.5250    3.6500 o         1 MOL     -0.558056
    163 C55         2.3300    1.3800    1.1370 c3        1 MOL      0.127411
    164 C56         1.5280    1.8470   -0.1300 c3        1 MOL     -0.011636
    165 C57         0.1700    1.1170   -0.1870 c         1 MOL      0.571557
    166 O25        -0.9380    1.6540   -0.4220 o         1 MOL     -0.690518
    167 O26         0.1360   -0.1390   -0.1840 o         1 MOL     -0.690518
    168 H71         4.2940    0.8970   -0.1970 hn        1 MOL      0.120971
    169 H72         3.4840    3.2180    1.3790 h1        1 MOL      0.120773
    170 H73         1.8090    1.4640    2.0870 hc        1 MOL      0.033285
    171 H74         2.7030    0.3530    1.0230 hc        1 MOL      0.033285
    172 H75         2.1400    1.6400   -1.0050 hc        1 MOL      0.014773
    173 H76         1.3160    2.9080   -0.1250 hc        1 MOL      0.014773
    174 N15         5.0160    0.5670    2.7870 n         1 MOL      0.000807
    175 C58         5.7460    0.1450    3.9920 c3        1 MOL     -0.313744
    176 H77         6.7930    0.4320    3.9010 h1        1 MOL      0.099027
    177 H78         5.3120    0.6280    4.8670 h1        1 MOL      0.099027
    178 H79         5.6740   -0.9370    4.1000 h1        1 MOL      0.099027
    179 H80         5.0700   -0.0920    2.0290 hn        1 MOL      0.022694
    180 Ca1        -2.3800   -0.4300   -1.1260 Ca        1 MOL      1.788935
    181 O27        -1.3900    0.7060   -3.4570 oh        1 MOL     -0.890291
    182 H81        -0.7620    0.8090   -4.1660 ho        1 MOL      0.403210
    183 H82        -2.0980    1.3100   -3.6770 ho        1 MOL      0.403210
@<TRIPOS>BOND
     1    1    2 1   
     2    1    4 1   
     3    1    5 1   
     4    1    6 1   
     5    2    3 2   
     6    2    7 1   
     7    7    8 1   
     8    7   15 1   
     9    8    9 1   
    10    8   11 1   
    11    8   16 1   
    12    9   10 2   
    13    9   19 1   
    14   11   12 1   
    15   11   17 1   
    16   11   18 1   
    17   12   13 1   
    18   12   14 1   
    19   19   20 1   
    20   19   27 1   
    21   20   21 1   
    22   20   23 1   
    23   20   28 1   
    24   21   22 2   
    25   21   38 1   
    26   23   24 1   
    27   23   25 1   
    28   23   29 1   
    29   24   26 1   
    30   24   30 1   
    31   24   31 1   
    32   25   32 1   
    33   25   33 1   
    34   25   34 1   
    35   26   35 1   
    36   26   36 1   
    37   26   37 1   
    38   38   39 1   
    39   38   46 1   
    40   39   40 1   
    41   39   42 1   
    42   39   47 1   
    43   40   41 2   
    44   40   50 1   
    45   42   43 1   
    46   42   48 1   
    47   42   49 1   
    48   43   44 1   
    49   43   45 1   
    50   50   51 1   
    51   50   54 1   
    52   51   52 1   
    53   51   55 1   
    54   51   56 1   
    55   52   53 2   
    56   52   57 1   
    57   57   58 1   
    58   57   65 1   
    59   58   59 1   
    60   58   61 1   
    61   58   66 1   
    62   59   60 2   
    63   59   69 1   
    64   61   62 1   
    65   61   67 1   
    66   61   68 1   
    67   62   63 1   
    68   62   64 1   
    69   69   70 1   
    70   69   73 1   
    71   70   71 1   
    72   70   74 1   
    73   70   75 1   
    74   71   72 2   
    75   71   76 1   
    76   76   77 1   
    77   76   85 1   
    78   77   78 1   
    79   77   80 1   
    80   77   86 1   
    81   78   79 2   
    82   78   93 1   
    83   80   81 1   
    84   80   87 1   
    85   80   88 1   
    86   81   82 1   
    87   81   89 1   
    88   81   90 1   
    89   82   83 1   
    90   82   84 2   
    91   83   91 1   
    92   83   92 1   
    93   93   94 1   
    94   93  100 1   
    95   94   95 1   
    96   94   97 1   
    97   94  101 1   
    98   95   96 2   
    99   95  109 1   
   100   97   98 1   
   101   97   99 1   
   102   97  102 1   
   103   98  103 1   
   104   98  104 1   
   105   98  105 1   
   106   99  106 1   
   107   99  107 1   
   108   99  108 1   
   109  109  110 1   
   110  109  117 1   
   111  110  111 1   
   112  110  113 1   
   113  110  118 1   
   114  111  112 2   
   115  111  123 1   
   116  113  114 1   
   117  113  119 1   
   118  113  120 1   
   119  114  115 1   
   120  114  116 2   
   121  115  121 1   
   122  115  122 1   
   123  123  124 1   
   124  123  135 1   
   125  124  125 1   
   126  124  127 1   
   127  124  136 1   
   128  125  126 2   
   129  125  144 1   
   130  127  128 1   
   131  127  137 1   
   132  127  138 1   
   133  128  129 ar  
   134  128  130 ar  
   135  129  131 ar  
   136  129  139 1   
   137  130  132 ar  
   138  130  140 1   
   139  131  133 ar  
   140  131  141 1   
   141  132  133 ar  
   142  132  142 1   
   143  133  134 1   
   144  134  143 1   
   145  144  145 1   
   146  144  153 1   
   147  145  146 1   
   148  145  148 1   
   149  145  154 1   
   150  146  147 2   
   151  146  159 1   
   152  148  149 1   
   153  148  155 1   
   154  148  156 1   
   155  149  150 1   
   156  149  157 1   
   157  149  158 1   
   158  150  151 1   
   159  150  152 1   
   160  159  160 1   
   161  159  168 1   
   162  160  161 1   
   163  160  163 1   
   164  160  169 1   
   165  161  162 2   
   166  161  174 1   
   167  163  164 1   
   168  163  170 1   
   169  163  171 1   
   170  164  165 1   
   171  164  172 1   
   172  164  173 1   
   173  165  166 1   
   174  165  167 1   
   175  174  175 1   
   176  174  179 1   
   177  175  176 1   
   178  175  177 1   
   179  175  178 1   
   180  181  182 1   
   181  181  183 1   
@<TRIPOS>SUBSTRUCTURE
     1 MOL         1 TEMP              0 ****  ****    0 ROOT
