@<TRIPOS>MOLECULE
MOL
  176   174     1     0     0
SMALL
resp


@<TRIPOS>ATOM
      1 C1          0.0690    4.8200    6.2290 c3        1 MOL     -0.322474
      2 C2          0.1210    3.8910    4.9770 c         1 MOL      0.667014
      3 O1          1.2580    3.5840    4.4820 o         1 MOL     -0.575603
      4 H1         -0.3880    4.2830    7.0610 hc        1 MOL      0.090657
      5 H2          1.0800    5.1200    6.5020 hc        1 MOL      0.090657
      6 H3         -0.5240    5.7060    5.9990 hc        1 MOL      0.090657
      7 N1         -1.0340    3.6120    4.3490 n         1 MOL     -0.595130
      8 C3         -1.1690    3.0820    3.0520 c3        1 MOL      0.192536
      9 C4         -1.5110    4.1350    1.9910 c         1 MOL      0.593219
     10 O2         -2.1850    5.1780    2.2440 o         1 MOL     -0.569746
     11 C5         -2.0010    1.7600    3.1090 c3        1 MOL     -0.304974
     12 C6         -1.9880    0.9880    1.7330 c         1 MOL      0.980670
     13 O3         -1.1930    1.2550    0.8350 o         1 MOL     -0.870964
     14 O4         -2.7860    0.0610    1.5260 o         1 MOL     -0.870964
     15 H4         -1.9140    3.8970    4.7680 hn        1 MOL      0.304393
     16 H5         -0.1430    2.7960    2.8120 h1        1 MOL      0.062088
     17 H6         -3.0250    2.0070    3.3840 hc        1 MOL      0.075239
     18 H7         -1.5970    1.0420    3.8210 hc        1 MOL      0.075239
     19 N2         -0.8550    4.0500    0.7890 n         1 MOL     -0.377882
     20 C7         -0.7940    5.0180   -0.2990 c3        1 MOL     -0.244783
     21 C8         -2.1480    5.2130   -1.0360 c         1 MOL      0.598868
     22 O5         -2.3440    6.2230   -1.7310 o         1 MOL     -0.572904
     23 C9          0.3370    4.6380   -1.2480 c3        1 MOL      0.249335
     24 C10         0.7910    5.7690   -2.1900 c3        1 MOL     -0.227997
     25 C11         2.0360    5.3030   -2.9650 c3        1 MOL      0.112358
     26 C12         2.7410    6.4000   -3.7470 c3        1 MOL      0.037386
     27 N3          4.1240    6.0030   -4.2470 n4        1 MOL     -0.360882
     28 H8         -0.1850    3.2930    0.7320 hn        1 MOL      0.239345
     29 H9         -0.5950    5.9610    0.2160 h1        1 MOL      0.133946
     30 H10         0.0190    3.7810   -1.8490 hc        1 MOL      0.006224
     31 H11         1.1740    4.2990   -0.6360 hc        1 MOL      0.006224
     32 H12         1.0070    6.6400   -1.5740 hc        1 MOL      0.066875
     33 H13        -0.0220    6.0130   -2.8740 hc        1 MOL      0.066875
     34 H14         1.8290    4.4050   -3.5510 hc        1 MOL      0.003030
     35 H15         2.6900    4.9580   -2.1580 hc        1 MOL      0.003030
     36 H16         2.8040    7.2940   -3.1390 hx        1 MOL      0.077656
     37 H17         2.1310    6.6510   -4.6180 hx        1 MOL      0.077656
     38 H18         4.6220    6.7840   -4.6660 hn        1 MOL      0.325447
     39 H19         4.6100    5.5810   -3.4710 hn        1 MOL      0.325447
     40 H20         4.1390    5.2850   -4.9500 hn        1 MOL      0.325447
     41 N4         -3.0710    4.2340   -0.8590 n         1 MOL     -0.336939
     42 C13        -4.4430    4.1800   -1.5090 c3        1 MOL     -0.038604
     43 C14        -5.5770    3.6440   -0.6270 c         1 MOL      0.410851
     44 O6         -6.6760    3.4390   -1.1350 o         1 MOL     -0.481093
     45 C15        -4.2540    3.2350   -2.7520 c3        1 MOL     -0.188628
     46 C16        -3.6650    1.8460   -2.2530 c         1 MOL      0.587859
     47 O7         -3.2740    0.9730   -3.1020 o         1 MOL     -0.678201
     48 O8         -3.6070    1.5130   -1.0720 o         1 MOL     -0.678201
     49 H21        -2.8380    3.3860   -0.3570 hn        1 MOL      0.239464
     50 H22        -4.7590    5.1670   -1.8510 h1        1 MOL      0.125629
     51 H23        -3.6710    3.6810   -3.5570 hc        1 MOL      0.081681
     52 H24        -5.2470    2.9600   -3.1190 hc        1 MOL      0.081681
     53 N5         -5.2470    3.2280    0.5810 n         1 MOL     -0.203171
     54 C17        -6.3290    2.6050    1.3790 c3        1 MOL     -0.197339
     55 C18        -6.8530    1.2480    0.9010 c         1 MOL      0.454438
     56 O9         -8.0560    0.9040    1.1710 o         1 MOL     -0.547533
     57 H25        -4.2880    3.2720    0.9010 hn        1 MOL      0.150199
     58 H26        -7.1860    3.2770    1.3810 h1        1 MOL      0.124650
     59 H27        -5.9460    2.4470    2.3870 h1        1 MOL      0.124650
     60 N6         -6.1220    0.4080    0.1520 n         1 MOL     -0.300165
     61 C19        -6.7370   -0.7050   -0.5850 c3        1 MOL      0.041845
     62 C20        -6.7310   -2.1080    0.1360 c         1 MOL      0.359033
     63 O10        -7.5330   -2.9330   -0.2060 o         1 MOL     -0.512254
     64 C21        -6.1130   -0.8310   -1.9930 c3        1 MOL     -0.180550
     65 C22        -4.9020   -1.7100   -2.0160 c         1 MOL      0.489102
     66 N7         -4.9200   -2.7390   -2.8720 n         1 MOL     -0.688694
     67 O11        -3.9770   -1.6170   -1.2500 o         1 MOL     -0.526041
     68 H28        -5.1690    0.6200   -0.0920 hn        1 MOL      0.346047
     69 H29        -7.7950   -0.5220   -0.7760 h1        1 MOL      0.120616
     70 H30        -5.8130    0.1500   -2.3590 hc        1 MOL      0.087270
     71 H31        -6.8600   -1.2050   -2.6950 hc        1 MOL      0.087270
     72 H32        -5.6070   -2.8200   -3.5970 hn        1 MOL      0.362035
     73 H33        -4.1140   -3.3270   -2.6810 hn        1 MOL      0.362035
     74 N8         -5.8480   -2.3650    1.0960 n         1 MOL     -0.073723
     75 C23        -5.8600   -3.5950    2.0020 c3        1 MOL     -0.196176
     76 C24        -4.4680   -4.0000    2.4080 c         1 MOL      0.572397
     77 O12        -4.2480   -4.7020    3.4010 o         1 MOL     -0.587517
     78 H34        -5.3350   -1.5690    1.4440 hn        1 MOL      0.140428
     79 H35        -6.2220   -4.4720    1.4670 h1        1 MOL      0.111500
     80 H36        -6.3230   -3.4530    2.9770 h1        1 MOL      0.111500
     81 N9         -3.4710   -3.5830    1.6540 n         1 MOL     -0.242046
     82 C25        -2.0800   -4.1460    1.7980 c3        1 MOL     -0.039165
     83 C26        -1.0280   -3.2120    1.2530 c         1 MOL      0.603534
     84 O13        -1.3450   -2.4130    0.3730 o         1 MOL     -0.588702
     85 C27        -1.8650   -5.4830    1.1190 c3        1 MOL     -0.079447
     86 C28        -2.0320   -5.5230   -0.3560 ca        1 MOL      0.062325
     87 C29        -0.9830   -5.3760   -1.2140 ca        1 MOL     -0.136536
     88 C30        -3.2890   -5.5520   -0.9590 ca        1 MOL     -0.136536
     89 C31        -1.0860   -5.3050   -2.5450 ca        1 MOL     -0.264299
     90 C32        -3.4810   -5.4930   -2.3320 ca        1 MOL     -0.264299
     91 C33        -2.3690   -5.4520   -3.1910 ca        1 MOL      0.323041
     92 O14        -2.4400   -5.5750   -4.5580 oh        1 MOL     -0.480359
     93 H37        -3.6840   -2.9910    0.8760 hn        1 MOL      0.171035
     94 H38        -1.8140   -4.2360    2.8540 h1        1 MOL      0.084182
     95 H39        -2.5660   -6.2200    1.4970 hc        1 MOL      0.051036
     96 H40        -0.8680   -5.8540    1.3730 hc        1 MOL      0.051036
     97 H41        -0.0190   -5.1100   -0.8210 ha        1 MOL      0.137357
     98 H42        -4.1670   -5.6430   -0.3360 ha        1 MOL      0.137357
     99 H43        -0.1680   -5.2820   -3.1170 ha        1 MOL      0.140548
    100 H44        -4.4480   -5.6570   -2.7670 ha        1 MOL      0.140548
    101 H45        -1.5440   -5.6210   -4.8860 ho        1 MOL      0.350713
    102 N10         0.1670   -3.3700    1.8250 n         1 MOL     -0.565602
    103 C34         1.3730   -2.5650    1.6690 c3        1 MOL      0.367668
    104 C35         2.5940   -3.4890    1.3460 c         1 MOL      0.342771
    105 O15         2.6730   -4.6250    1.7540 o         1 MOL     -0.503194
    106 C36         1.6680   -1.7530    2.9560 c3        1 MOL      0.044197
    107 C37         2.2940   -0.4370    2.6660 c3        1 MOL      0.138524
    108 C38         2.3940   -2.5240    4.0890 c3        1 MOL     -0.254514
    109 C39         2.0700    0.4540    3.8950 c3        1 MOL     -0.422671
    110 H46         0.2930   -4.0480    2.5660 hn        1 MOL      0.314731
    111 H47         1.2150   -1.8730    0.8500 h1        1 MOL     -0.048708
    112 H48         0.6890   -1.6260    3.4230 hc        1 MOL      0.022541
    113 H49         1.6460    0.0190    1.9200 hc        1 MOL     -0.012013
    114 H50         3.3650   -0.5210    2.4740 hc        1 MOL     -0.012013
    115 H51         2.4500   -2.0000    5.0480 hc        1 MOL      0.058960
    116 H52         2.0860   -3.5570    4.2240 hc        1 MOL      0.058960
    117 H53         3.4350   -2.5920    3.7620 hc        1 MOL      0.058960
    118 H54         2.4230    0.0400    4.8360 hc        1 MOL      0.112282
    119 H55         2.6620    1.3760    3.8680 hc        1 MOL      0.112282
    120 H56         1.0100    0.6970    3.8490 hc        1 MOL      0.112282
    121 N11         3.5120   -2.9110    0.5170 n         1 MOL     -0.257747
    122 C40         4.7680   -3.5390    0.0970 c3        1 MOL      0.228685
    123 C41         5.9250   -2.7670    0.5560 c         1 MOL      0.319955
    124 O16         5.7260   -1.7170    1.1910 o         1 MOL     -0.388430
    125 C42         4.7750   -3.7020   -1.4150 c3        1 MOL     -0.077340
    126 O17         4.6780   -2.3980   -1.9810 oh        1 MOL     -0.464459
    127 H57         3.3170   -1.9790    0.1670 hn        1 MOL      0.142565
    128 H58         4.9000   -4.5570    0.4690 h1        1 MOL      0.049385
    129 H59         3.9500   -4.3360   -1.7430 h1        1 MOL      0.063229
    130 H60         5.7230   -4.1550   -1.6960 h1        1 MOL      0.063229
    131 H61         4.6840   -2.5440   -2.9290 ho        1 MOL      0.396826
    132 N12         7.2290   -3.1370    0.2550 n         1 MOL     -0.323892
    133 C43         8.2760   -2.3240    0.6990 c3        1 MOL      0.034521
    134 C44         8.4830   -1.0330   -0.1360 c         1 MOL      0.407774
    135 O18         9.1540   -0.1120    0.3920 o         1 MOL     -0.509776
    136 C45         9.6180   -3.1440    0.6290 c3        1 MOL     -0.310116
    137 H62         7.4870   -3.9900   -0.2090 hn        1 MOL      0.258767
    138 H63         8.0120   -2.0200    1.7110 h1        1 MOL      0.117950
    139 H64         9.8300   -3.5100   -0.3700 hc        1 MOL      0.102674
    140 H65        10.4780   -2.5840    0.9850 hc        1 MOL      0.102674
    141 H66         9.5020   -4.0190    1.2720 hc        1 MOL      0.102674
    142 N13         7.8370   -0.8330   -1.2530 n         1 MOL     -0.296383
    143 C46         7.7530    0.4000   -2.0010 c3        1 MOL      0.114507
    144 C47         6.5890    1.3210   -1.5390 c         1 MOL      0.274955
    145 O19         6.8370    2.4850   -1.1960 o         1 MOL     -0.495409
    146 C48         7.4960    0.0680   -3.4230 c3        1 MOL     -0.086966
    147 H67         7.3640   -1.6490   -1.6250 hn        1 MOL      0.203483
    148 H68         8.6840    0.9600   -1.9700 h1        1 MOL      0.099590
    149 H69         8.1410   -0.7000   -3.8540 hc        1 MOL      0.021961
    150 H70         6.5250   -0.4140   -3.4100 hc        1 MOL      0.021961
    151 H71         7.5840    0.8670   -4.1580 hc        1 MOL      0.021961
    152 N14         5.4130    0.8170   -1.1890 n         1 MOL     -0.170908
    153 C49         4.4390    1.6750   -0.5680 c3        1 MOL      0.158457
    154 C50         4.6370    2.0640    0.8870 c         1 MOL      0.188328
    155 O20         4.4200    3.2180    1.2770 o         1 MOL     -0.502583
    156 C51         3.0370    0.9790   -0.6840 c3        1 MOL     -0.299844
    157 C52         2.4760    0.7690   -2.0450 c3        1 MOL     -0.054925
    158 C53         1.0350    0.3150   -1.9760 c         1 MOL      0.825102
    159 O21         0.7780   -0.7890   -1.5000 o         1 MOL     -0.769381
    160 O22         0.0400    1.0200   -2.3350 o         1 MOL     -0.769381
    161 H72         5.1690   -0.1610   -1.2570 hn        1 MOL      0.164718
    162 H73         4.3770    2.5780   -1.1670 h1        1 MOL      0.044660
    163 H74         2.3330    1.7350   -0.3240 hc        1 MOL      0.124953
    164 H75         3.0640    0.0320   -0.1400 hc        1 MOL      0.124953
    165 H76         3.0480    0.0310   -2.6090 hc        1 MOL     -0.041718
    166 H77         2.6110    1.7200   -2.5610 hc        1 MOL     -0.041718
    167 N15         5.3000    1.2030    1.6050 n         1 MOL      0.257395
    168 C54         5.9320    1.5300    2.8580 c3        1 MOL     -0.207284
    169 H78         5.3760    1.0700    3.6750 h1        1 MOL      0.080844
    170 H79         6.9550    1.1540    2.8580 h1        1 MOL      0.080844
    171 H80         5.9420    2.6110    2.9890 h1        1 MOL      0.080844
    172 H81         5.3140    0.2130    1.4200 hn        1 MOL     -0.029994
    173 Ca1        -1.7950   -0.3030   -1.0790 Ca        1 MOL      1.791883
    174 O23        -1.5570   -1.7900   -3.2300 oh        1 MOL     -0.886716
    175 H82        -1.1160   -1.4810   -4.0150 ho        1 MOL      0.412667
    176 H83        -1.5330   -2.7430   -3.2970 ho        1 MOL      0.412667
@<TRIPOS>BOND
     1    1    2 1   
     2    1    4 1   
     3    1    5 1   
     4    1    6 1   
     5    2    3 2   
     6    2    7 1   
     7    7    8 1   
     8    7   15 1   
     9    8    9 1   
    10    8   11 1   
    11    8   16 1   
    12    9   10 2   
    13    9   19 1   
    14   11   12 1   
    15   11   17 1   
    16   11   18 1   
    17   12   13 1   
    18   12   14 1   
    19   19   20 1   
    20   19   28 1   
    21   20   21 1   
    22   20   23 1   
    23   20   29 1   
    24   21   22 2   
    25   21   41 1   
    26   23   24 1   
    27   23   30 1   
    28   23   31 1   
    29   24   25 1   
    30   24   32 1   
    31   24   33 1   
    32   25   26 1   
    33   25   34 1   
    34   25   35 1   
    35   26   27 1   
    36   26   36 1   
    37   26   37 1   
    38   27   38 1   
    39   27   39 1   
    40   27   40 1   
    41   41   42 1   
    42   41   49 1   
    43   42   43 1   
    44   42   45 1   
    45   42   50 1   
    46   43   44 2   
    47   43   53 1   
    48   45   46 1   
    49   45   51 1   
    50   45   52 1   
    51   46   47 1   
    52   46   48 1   
    53   53   54 1   
    54   53   57 1   
    55   54   55 1   
    56   54   58 1   
    57   54   59 1   
    58   55   56 2   
    59   55   60 1   
    60   60   61 1   
    61   60   68 1   
    62   61   62 1   
    63   61   64 1   
    64   61   69 1   
    65   62   63 2   
    66   62   74 1   
    67   64   65 1   
    68   64   70 1   
    69   64   71 1   
    70   65   66 1   
    71   65   67 2   
    72   66   72 1   
    73   66   73 1   
    74   74   75 1   
    75   74   78 1   
    76   75   76 1   
    77   75   79 1   
    78   75   80 1   
    79   76   77 2   
    80   76   81 1   
    81   81   82 1   
    82   81   93 1   
    83   82   83 1   
    84   82   85 1   
    85   82   94 1   
    86   83   84 2   
    87   83  102 1   
    88   85   86 1   
    89   85   95 1   
    90   85   96 1   
    91   86   87 ar  
    92   86   88 ar  
    93   87   89 ar  
    94   87   97 1   
    95   88   90 ar  
    96   88   98 1   
    97   89   91 ar  
    98   89   99 1   
    99   90   91 ar  
   100   90  100 1   
   101   91   92 1   
   102   92  101 1   
   103  102  103 1   
   104  102  110 1   
   105  103  104 1   
   106  103  106 1   
   107  103  111 1   
   108  104  105 2   
   109  104  121 1   
   110  106  107 1   
   111  106  108 1   
   112  106  112 1   
   113  107  109 1   
   114  107  113 1   
   115  107  114 1   
   116  108  115 1   
   117  108  116 1   
   118  108  117 1   
   119  109  118 1   
   120  109  119 1   
   121  109  120 1   
   122  121  122 1   
   123  121  127 1   
   124  122  123 1   
   125  122  125 1   
   126  122  128 1   
   127  123  124 2   
   128  123  132 1   
   129  125  126 1   
   130  125  129 1   
   131  125  130 1   
   132  126  131 1   
   133  132  133 1   
   134  132  137 1   
   135  133  134 1   
   136  133  136 1   
   137  133  138 1   
   138  134  135 2   
   139  134  142 1   
   140  136  139 1   
   141  136  140 1   
   142  136  141 1   
   143  142  143 1   
   144  142  147 1   
   145  143  144 1   
   146  143  146 1   
   147  143  148 1   
   148  144  145 2   
   149  144  152 1   
   150  146  149 1   
   151  146  150 1   
   152  146  151 1   
   153  152  153 1   
   154  152  161 1   
   155  153  154 1   
   156  153  156 1   
   157  153  162 1   
   158  154  155 2   
   159  154  167 1   
   160  156  157 1   
   161  156  163 1   
   162  156  164 1   
   163  157  158 1   
   164  157  165 1   
   165  157  166 1   
   166  158  159 1   
   167  158  160 1   
   168  167  168 1   
   169  167  172 1   
   170  168  169 1   
   171  168  170 1   
   172  168  171 1   
   173  174  175 1   
   174  174  176 1   
@<TRIPOS>SUBSTRUCTURE
     1 MOL         1 TEMP              0 ****  ****    0 ROOT
