@<TRIPOS>MOLECULE
MOL
  183   181     1     0     0
SMALL
resp


@<TRIPOS>ATOM
      1 C1         -0.4310    1.4640    6.3520 c3        1 MOL     -0.334190
      2 C2         -0.8210    1.5130    4.8430 c         1 MOL      0.864938
      3 O1         -0.2670    2.3020    4.0660 o         1 MOL     -0.667970
      4 H1          0.5590    1.0210    6.4560 hc        1 MOL      0.077883
      5 H2         -0.4210    2.4750    6.7590 hc        1 MOL      0.077883
      6 H3         -1.1570    0.8600    6.8960 hc        1 MOL      0.077883
      7 N1         -1.9030    0.8090    4.4150 n         1 MOL     -0.839999
      8 C3         -2.5920    0.8700    3.1090 c3        1 MOL      0.668330
      9 C4         -2.9860    2.2990    2.7570 c         1 MOL      0.401424
     10 O2         -3.7520    2.9200    3.4990 o         1 MOL     -0.587651
     11 C5         -3.8620   -0.0460    3.1100 c3        1 MOL     -0.370688
     12 C6         -4.5630   -0.1240    1.7770 c         1 MOL      0.795690
     13 O3         -5.7520   -0.4320    1.7160 o         1 MOL     -0.624272
     14 O4         -3.9810    0.3300    0.7340 o         1 MOL     -0.624272
     15 H4         -2.2960    0.2420    5.1520 hn        1 MOL      0.330420
     16 H5         -1.9910    0.4210    2.3170 h1        1 MOL     -0.098014
     17 H6         -4.5790    0.2450    3.8830 hc        1 MOL      0.042733
     18 H7         -3.5060   -1.0470    3.3920 hc        1 MOL      0.042733
     19 N2         -2.4120    2.9310    1.7330 n         1 MOL     -0.150559
     20 C7         -2.6440    4.4010    1.4800 c3        1 MOL     -0.042789
     21 C8         -3.8480    4.5050    0.4950 c         1 MOL      0.437366
     22 O5         -4.7940    5.2730    0.6640 o         1 MOL     -0.590782
     23 C9         -1.3280    5.0450    1.0650 c3        1 MOL      0.370649
     24 C10        -0.2220    5.0630    2.2120 c3        1 MOL      0.135011
     25 C11        -1.5990    6.4630    0.5570 c3        1 MOL     -0.578871
     26 C12         1.0820    5.7110    1.7840 c3        1 MOL     -0.035568
     27 H8         -1.8970    2.3710    1.0700 hn        1 MOL     -0.040729
     28 H9         -2.8750    4.8270    2.4520 h1        1 MOL      0.058207
     29 H10        -0.9690    4.5030    0.1960 hc        1 MOL     -0.041399
     30 H11         0.1130    4.0660    2.5130 hc        1 MOL     -0.030209
     31 H12        -0.6310    5.5760    3.0760 hc        1 MOL     -0.030209
     32 H13        -2.0150    7.0360    1.3910 hc        1 MOL      0.122267
     33 H14        -0.7720    6.8800   -0.0130 hc        1 MOL      0.122267
     34 H15        -2.3570    6.4110   -0.2260 hc        1 MOL      0.122267
     35 H16         1.5290    5.3010    0.8790 hc        1 MOL     -0.015553
     36 H17         0.8800    6.7600    1.5810 hc        1 MOL     -0.015553
     37 H18         1.7870    5.6240    2.6100 hc        1 MOL     -0.015553
     38 N3         -3.8620    3.8030   -0.6360 n         1 MOL     -0.194195
     39 C13        -4.8330    3.9010   -1.7690 c3        1 MOL     -0.053540
     40 C14        -6.2170    3.1460   -1.4740 c         1 MOL      0.498421
     41 O6         -7.1940    3.4470   -2.0690 o         1 MOL     -0.553051
     42 C15        -4.1530    3.5890   -3.1500 c3        1 MOL     -0.279697
     43 C16        -3.1940    2.4630   -3.1040 c         1 MOL      0.815122
     44 O7         -3.4140    1.5180   -2.3620 o         1 MOL     -0.716419
     45 O8         -2.1710    2.5440   -3.8370 o         1 MOL     -0.716419
     46 H19        -3.2300    3.0250   -0.7790 hn        1 MOL      0.208627
     47 H20        -5.1260    4.9470   -1.8600 h1        1 MOL      0.092418
     48 H21        -3.6430    4.5150   -3.3740 hc        1 MOL      0.071995
     49 H22        -4.9190    3.3450   -3.8940 hc        1 MOL      0.071995
     50 N4         -6.2770    2.2290   -0.4900 n         1 MOL      0.002613
     51 C17        -7.5520    1.6790    0.0410 c3        1 MOL     -0.303261
     52 C18        -8.1240    0.4980   -0.7440 c         1 MOL      0.639475
     53 O9         -9.1620    0.5390   -1.3710 o         1 MOL     -0.590689
     54 H23        -5.3980    1.8140   -0.2220 hn        1 MOL      0.035300
     55 H24        -8.2450    2.5130   -0.0230 h1        1 MOL      0.103888
     56 H25        -7.4910    1.2910    1.0600 h1        1 MOL      0.103888
     57 N5         -7.3270   -0.5970   -0.8300 n         1 MOL     -0.363984
     58 C19        -7.4820   -1.7700   -1.6380 c3        1 MOL      0.072768
     59 C20        -7.3470   -3.0990   -0.8560 c         1 MOL      0.384352
     60 O10        -7.7490   -4.1600   -1.3050 o         1 MOL     -0.533737
     61 C21        -6.4290   -1.7500   -2.8200 c3        1 MOL     -0.097337
     62 C22        -4.9270   -1.5780   -2.4210 c         1 MOL      0.639948
     63 O11        -3.9920   -1.3610   -3.2700 o         1 MOL     -0.690711
     64 O12        -4.5610   -1.8890   -1.2350 o         1 MOL     -0.690711
     65 H26        -6.4980   -0.4870   -0.2520 hn        1 MOL      0.107596
     66 H27        -8.4570   -1.6810   -2.0970 h1        1 MOL      0.073072
     67 H28        -6.6430   -0.9230   -3.4960 hc        1 MOL      0.035930
     68 H29        -6.5060   -2.6760   -3.3890 hc        1 MOL      0.035930
     69 N6         -6.8970   -3.0040    0.4300 n         1 MOL     -0.123999
     70 C23        -6.7340   -4.1000    1.3610 c3        1 MOL     -0.226359
     71 C24        -5.3280   -4.7250    1.4340 c         1 MOL      0.637987
     72 O13        -5.1380   -5.8400    1.9240 o         1 MOL     -0.602743
     73 H30        -6.4710   -2.1180    0.6700 hn        1 MOL      0.138803
     74 H31        -7.4170   -4.8940    1.0640 h1        1 MOL      0.088272
     75 H32        -6.7740   -3.7350    2.3870 h1        1 MOL      0.088272
     76 N7         -4.3130   -4.0410    0.8550 n         1 MOL     -0.300323
     77 C25        -2.9200   -4.3970    1.0370 c3        1 MOL     -0.081088
     78 C26        -1.9350   -3.2590    1.2320 c         1 MOL      0.582473
     79 O14        -2.1980   -2.0800    0.9510 o         1 MOL     -0.689427
     80 C27        -2.4040   -5.2230   -0.1180 c3        1 MOL     -0.114908
     81 C28        -2.7190   -4.7250   -1.5520 c3        1 MOL     -0.156431
     82 C29        -1.8080   -3.7000   -2.2520 c         1 MOL      0.523849
     83 N8         -1.7940   -3.6620   -3.5780 n         1 MOL     -0.715243
     84 O15        -1.2150   -2.7890   -1.6090 o         1 MOL     -0.586847
     85 H33        -4.4850   -3.1880    0.3410 hn        1 MOL      0.269961
     86 H34        -2.8950   -4.9740    1.9620 h1        1 MOL      0.071463
     87 H35        -2.8530   -6.2170   -0.0840 hc        1 MOL      0.051372
     88 H36        -1.3380   -5.4310    0.0180 hc        1 MOL      0.051372
     89 H37        -3.7330   -4.3310   -1.6490 hc        1 MOL      0.080469
     90 H38        -2.7490   -5.6110   -2.1920 hc        1 MOL      0.080469
     91 H39        -2.3160   -4.3420   -4.1190 hn        1 MOL      0.362464
     92 H40        -1.1850   -3.0040   -4.0380 hn        1 MOL      0.362464
     93 N9         -0.6370   -3.5870    1.6800 n         1 MOL     -0.280533
     94 C30         0.4600   -2.6890    1.9330 c3        1 MOL      0.092084
     95 C31         1.5740   -2.9530    0.8890 c         1 MOL      0.250131
     96 O16         2.2810   -3.9050    1.1740 o         1 MOL     -0.541118
     97 C32         0.9740   -2.7480    3.3670 c3        1 MOL      0.200641
     98 C33         1.9840   -1.5510    3.6790 c3        1 MOL     -0.300645
     99 C34        -0.1360   -2.6740    4.4310 c3        1 MOL     -0.300645
    100 H41        -0.5130   -4.5640    1.9220 hn        1 MOL      0.214965
    101 H42         0.0970   -1.6640    1.8350 h1        1 MOL      0.145893
    102 H43         1.4610   -3.7190    3.4910 hc        1 MOL     -0.026019
    103 H44         1.3930   -0.6730    3.4340 hc        1 MOL      0.052173
    104 H45         2.2890   -1.4980    4.7210 hc        1 MOL      0.052173
    105 H46         2.9070   -1.6230    3.1070 hc        1 MOL      0.052173
    106 H47        -0.9010   -3.4320    4.2680 hc        1 MOL      0.052173
    107 H48         0.2510   -2.6910    5.4480 hc        1 MOL      0.052173
    108 H49        -0.7970   -1.8290    4.2540 hc        1 MOL      0.052173
    109 N10         1.7410   -2.2380   -0.2030 n         1 MOL      0.007043
    110 C35         2.8000   -2.4750   -1.1550 c3        1 MOL     -0.036582
    111 C36         4.1510   -1.9590   -0.5770 c         1 MOL      0.386914
    112 O17         4.1190   -1.3290    0.4580 o         1 MOL     -0.291008
    113 C37         2.3680   -1.7900   -2.4690 c3        1 MOL     -0.298981
    114 C38         3.3800   -1.8790   -3.6020 c         1 MOL      0.677791
    115 N11         3.0010   -2.5280   -4.6890 n         1 MOL     -0.771834
    116 O18         4.4490   -1.2690   -3.5480 o         1 MOL     -0.557788
    117 H50         1.1180   -1.4690   -0.4080 hn        1 MOL      0.075386
    118 H51         2.9150   -3.5520   -1.3230 h1        1 MOL      0.063309
    119 H52         2.2760   -0.7120   -2.3290 hc        1 MOL      0.135000
    120 H53         1.3850   -2.1010   -2.7980 hc        1 MOL      0.135000
    121 H54         2.0940   -2.9330   -4.8610 hn        1 MOL      0.353909
    122 H55         3.6820   -2.6300   -5.4220 hn        1 MOL      0.353909
    123 N12         5.3530   -2.2930   -1.0570 n         1 MOL     -0.550345
    124 C39         6.5960   -1.8980   -0.4540 c3        1 MOL      0.421037
    125 C40         6.7160   -0.3160   -0.4170 c         1 MOL      0.496919
    126 O19         7.2810    0.1820    0.5620 o         1 MOL     -0.511145
    127 C41         7.8070   -2.4410   -1.2440 c3        1 MOL     -0.284789
    128 C42         9.1570   -2.0760   -0.6280 ca        1 MOL     -0.013803
    129 C43         9.4840   -2.3920    0.6720 ca        1 MOL     -0.073526
    130 C44        10.1090   -1.3040   -1.3300 ca        1 MOL     -0.073526
    131 C45        10.7340   -2.1630    1.2610 ca        1 MOL     -0.334657
    132 C46        11.3740   -0.9980   -0.8010 ca        1 MOL     -0.334657
    133 C47        11.6730   -1.4020    0.5280 ca        1 MOL      0.395246
    134 O20        12.8540   -1.0280    1.1720 oh        1 MOL     -0.520296
    135 H56         5.3600   -2.7900   -1.9290 hn        1 MOL      0.269185
    136 H57         6.5420   -2.2100    0.5840 h1        1 MOL     -0.013537
    137 H58         7.7440   -1.9510   -2.2120 hc        1 MOL      0.089253
    138 H59         7.6670   -3.5220   -1.2640 hc        1 MOL      0.089253
    139 H60         8.7740   -2.9830    1.2300 ha        1 MOL      0.113448
    140 H61         9.7900   -0.9850   -2.3150 ha        1 MOL      0.113448
    141 H62        10.9520   -2.4990    2.2680 ha        1 MOL      0.161147
    142 H63        12.0880   -0.3770   -1.3200 ha        1 MOL      0.161147
    143 H64        13.1580   -0.2380    0.7200 ho        1 MOL      0.357086
    144 N13         6.0770    0.4610   -1.3370 n         1 MOL     -0.428712
    145 C48         5.9590    1.9240   -1.3890 c3        1 MOL      0.040878
    146 C49         5.2630    2.3480   -0.1180 c         1 MOL      0.262344
    147 O21         5.6040    3.3500    0.5040 o         1 MOL     -0.518435
    148 C50         5.1590    2.2240   -2.6510 c3        1 MOL     -0.001392
    149 C51         4.9070    3.6970   -2.8840 c3        1 MOL     -0.167055
    150 C52         4.7030    3.8930   -4.3610 c         1 MOL      0.690556
    151 O22         3.5210    4.1100   -4.8220 o         1 MOL     -0.739904
    152 O23         5.7030    3.9650   -5.1160 o         1 MOL     -0.739904
    153 H65         5.5050   -0.0750   -1.9690 hn        1 MOL      0.230759
    154 H66         6.8850    2.4820   -1.5040 h1        1 MOL      0.101732
    155 H67         4.1700    1.7730   -2.5800 hc        1 MOL      0.020387
    156 H68         5.7850    1.8420   -3.4600 hc        1 MOL      0.020387
    157 H69         5.7660    4.2710   -2.5480 hc        1 MOL      0.026442
    158 H70         3.9830    3.9340   -2.3450 hc        1 MOL      0.026442
    159 N14         4.2320    1.6490    0.3350 n         1 MOL     -0.021964
    160 C53         3.4520    1.9480    1.5440 c3        1 MOL     -0.060361
    161 C54         4.2130    1.5720    2.8720 c         1 MOL      0.398309
    162 O24         4.1460    2.3070    3.8710 o         1 MOL     -0.549029
    163 C55         2.1060    1.3250    1.4320 c3        1 MOL      0.158558
    164 C56         1.2440    1.9380    0.3240 c3        1 MOL     -0.232634
    165 C57        -0.0160    1.1890   -0.0140 c         1 MOL      0.575146
    166 O25        -1.0420    1.7940   -0.3980 o         1 MOL     -0.614029
    167 O26        -0.0380   -0.0970   -0.0470 o         1 MOL     -0.614029
    168 H71         4.1140    0.7490   -0.1170 hn        1 MOL      0.120633
    169 H72         3.1690    2.9950    1.6060 h1        1 MOL      0.069278
    170 H73         1.6100    1.4240    2.3980 hc        1 MOL      0.023207
    171 H74         2.2540    0.2540    1.2760 hc        1 MOL      0.023207
    172 H75         1.7770    2.0100   -0.6260 hc        1 MOL      0.083832
    173 H76         0.9330    2.9420    0.6210 hc        1 MOL      0.083832
    174 N15         4.8200    0.4170    2.7860 n         1 MOL      0.045375
    175 C58         5.6910    0.0030    3.8250 c3        1 MOL     -0.220357
    176 H77         6.6570   -0.2710    3.4000 h1        1 MOL      0.066374
    177 H78         5.8260    0.8200    4.5330 h1        1 MOL      0.066374
    178 H79         5.2620   -0.8570    4.3380 h1        1 MOL      0.066374
    179 H80         4.9890   -0.0920    1.9400 hn        1 MOL      0.063628
    180 Ca1        -2.3980   -0.5330   -1.0870 Ca        1 MOL      1.737861
    181 O27        -0.6470    0.4170   -3.1200 oh        1 MOL     -0.907483
    182 H81        -1.2340    1.0790   -3.4730 ho        1 MOL      0.420799
    183 H82         0.2130    0.8250   -3.1200 ho        1 MOL      0.420799
@<TRIPOS>BOND
     1    1    2 1   
     2    1    4 1   
     3    1    5 1   
     4    1    6 1   
     5    2    3 2   
     6    2    7 1   
     7    7    8 1   
     8    7   15 1   
     9    8    9 1   
    10    8   11 1   
    11    8   16 1   
    12    9   10 2   
    13    9   19 1   
    14   11   12 1   
    15   11   17 1   
    16   11   18 1   
    17   12   13 1   
    18   12   14 1   
    19   19   20 1   
    20   19   27 1   
    21   20   21 1   
    22   20   23 1   
    23   20   28 1   
    24   21   22 2   
    25   21   38 1   
    26   23   24 1   
    27   23   25 1   
    28   23   29 1   
    29   24   26 1   
    30   24   30 1   
    31   24   31 1   
    32   25   32 1   
    33   25   33 1   
    34   25   34 1   
    35   26   35 1   
    36   26   36 1   
    37   26   37 1   
    38   38   39 1   
    39   38   46 1   
    40   39   40 1   
    41   39   42 1   
    42   39   47 1   
    43   40   41 2   
    44   40   50 1   
    45   42   43 1   
    46   42   48 1   
    47   42   49 1   
    48   43   44 1   
    49   43   45 1   
    50   50   51 1   
    51   50   54 1   
    52   51   52 1   
    53   51   55 1   
    54   51   56 1   
    55   52   53 2   
    56   52   57 1   
    57   57   58 1   
    58   57   65 1   
    59   58   59 1   
    60   58   61 1   
    61   58   66 1   
    62   59   60 2   
    63   59   69 1   
    64   61   62 1   
    65   61   67 1   
    66   61   68 1   
    67   62   63 1   
    68   62   64 1   
    69   69   70 1   
    70   69   73 1   
    71   70   71 1   
    72   70   74 1   
    73   70   75 1   
    74   71   72 2   
    75   71   76 1   
    76   76   77 1   
    77   76   85 1   
    78   77   78 1   
    79   77   80 1   
    80   77   86 1   
    81   78   79 2   
    82   78   93 1   
    83   80   81 1   
    84   80   87 1   
    85   80   88 1   
    86   81   82 1   
    87   81   89 1   
    88   81   90 1   
    89   82   83 1   
    90   82   84 2   
    91   83   91 1   
    92   83   92 1   
    93   93   94 1   
    94   93  100 1   
    95   94   95 1   
    96   94   97 1   
    97   94  101 1   
    98   95   96 2   
    99   95  109 1   
   100   97   98 1   
   101   97   99 1   
   102   97  102 1   
   103   98  103 1   
   104   98  104 1   
   105   98  105 1   
   106   99  106 1   
   107   99  107 1   
   108   99  108 1   
   109  109  110 1   
   110  109  117 1   
   111  110  111 1   
   112  110  113 1   
   113  110  118 1   
   114  111  112 2   
   115  111  123 1   
   116  113  114 1   
   117  113  119 1   
   118  113  120 1   
   119  114  115 1   
   120  114  116 2   
   121  115  121 1   
   122  115  122 1   
   123  123  124 1   
   124  123  135 1   
   125  124  125 1   
   126  124  127 1   
   127  124  136 1   
   128  125  126 2   
   129  125  144 1   
   130  127  128 1   
   131  127  137 1   
   132  127  138 1   
   133  128  129 ar  
   134  128  130 ar  
   135  129  131 ar  
   136  129  139 1   
   137  130  132 ar  
   138  130  140 1   
   139  131  133 ar  
   140  131  141 1   
   141  132  133 ar  
   142  132  142 1   
   143  133  134 1   
   144  134  143 1   
   145  144  145 1   
   146  144  153 1   
   147  145  146 1   
   148  145  148 1   
   149  145  154 1   
   150  146  147 2   
   151  146  159 1   
   152  148  149 1   
   153  148  155 1   
   154  148  156 1   
   155  149  150 1   
   156  149  157 1   
   157  149  158 1   
   158  150  151 1   
   159  150  152 1   
   160  159  160 1   
   161  159  168 1   
   162  160  161 1   
   163  160  163 1   
   164  160  169 1   
   165  161  162 2   
   166  161  174 1   
   167  163  164 1   
   168  163  170 1   
   169  163  171 1   
   170  164  165 1   
   171  164  172 1   
   172  164  173 1   
   173  165  166 1   
   174  165  167 1   
   175  174  175 1   
   176  174  179 1   
   177  175  176 1   
   178  175  177 1   
   179  175  178 1   
   180  181  182 1   
   181  181  183 1   
@<TRIPOS>SUBSTRUCTURE
     1 MOL         1 TEMP              0 ****  ****    0 ROOT
