@<TRIPOS>MOLECULE
MOL
  176   174     1     0     0
SMALL
resp


@<TRIPOS>ATOM
      1 C1          0.9100    3.8480    5.8530 c3        1 MOL     -0.292940
      2 C2          0.6740    3.5030    4.3930 c         1 MOL      0.768964
      3 O1          1.6550    3.2680    3.7310 o         1 MOL     -0.610983
      4 H1          1.9730    4.0330    6.0150 hc        1 MOL      0.072241
      5 H2          0.3430    4.7420    6.1120 hc        1 MOL      0.072241
      6 H3          0.5870    3.0170    6.4800 hc        1 MOL      0.072241
      7 N1         -0.5230    3.4920    3.8250 n         1 MOL     -0.604921
      8 C3         -0.8260    3.1800    2.4410 c3        1 MOL      0.015937
      9 C4         -0.7060    4.4000    1.5670 c         1 MOL      0.645088
     10 O2         -1.0910    5.4820    2.0420 o         1 MOL     -0.594290
     11 C5         -2.1550    2.4170    2.4330 c3        1 MOL      0.003154
     12 C6         -2.4640    1.7190    1.0490 c         1 MOL      0.507531
     13 O3         -2.2800    2.2940   -0.0540 o         1 MOL     -0.606294
     14 O4         -2.8540    0.5420    1.0180 o         1 MOL     -0.606294
     15 H4         -1.3710    3.5680    4.3730 hn        1 MOL      0.304744
     16 H5          0.0050    2.5420    2.1220 h1        1 MOL      0.043988
     17 H6         -3.0220    3.0420    2.6470 hc        1 MOL      0.028868
     18 H7         -2.1690    1.6870    3.2480 hc        1 MOL      0.028868
     19 N2         -0.0560    4.3090    0.3560 n         1 MOL     -0.399521
     20 C7          0.2080    5.3080   -0.6670 c3        1 MOL      0.087103
     21 C8         -0.6750    5.4630   -1.8900 c         1 MOL      0.440100
     22 O5         -0.6500    6.4920   -2.5690 o         1 MOL     -0.544922
     23 C9          1.6570    5.1160   -1.0770 c3        1 MOL     -0.096927
     24 C10         2.6400    5.4190    0.1140 c3        1 MOL     -0.074968
     25 C11         2.6060    6.8970    0.6490 c3        1 MOL     -0.101880
     26 C12         3.7070    7.1120    1.7350 c3        1 MOL     -0.018547
     27 N3          3.8730    8.5580    2.0860 n4        1 MOL     -0.289719
     28 H8          0.2330    3.3810    0.0640 hn        1 MOL      0.238969
     29 H9          0.1010    6.2820   -0.1920 h1        1 MOL      0.025808
     30 H10         1.8950    5.7850   -1.9030 hc        1 MOL      0.057718
     31 H11         1.7780    4.0820   -1.4090 hc        1 MOL      0.057718
     32 H12         3.6320    5.1720   -0.2700 hc        1 MOL      0.053375
     33 H13         2.4820    4.7610    0.9650 hc        1 MOL      0.053375
     34 H14         1.6980    7.1260    1.1990 hc        1 MOL      0.072356
     35 H15         2.4910    7.5830   -0.1830 hc        1 MOL      0.072356
     36 H16         4.6490    6.7000    1.3490 hx        1 MOL      0.114655
     37 H17         3.4020    6.6830    2.6860 hx        1 MOL      0.114655
     38 H18         4.1400    9.1580    1.3180 hn        1 MOL      0.305901
     39 H19         2.9720    8.8740    2.4090 hn        1 MOL      0.305901
     40 H20         4.5690    8.7100    2.8040 hn        1 MOL      0.305901
     41 N4         -1.4260    4.3960   -2.2250 n         1 MOL     -0.314579
     42 C13        -2.6030    4.4700   -3.1320 c3        1 MOL      0.159957
     43 C14        -3.9480    4.5350   -2.3780 c         1 MOL      0.337058
     44 O6         -4.9860    4.8390   -2.9820 o         1 MOL     -0.527882
     45 C15        -2.6660    3.3710   -4.2470 c3        1 MOL     -0.275364
     46 C16        -2.3840    1.9920   -3.6450 c         1 MOL      0.780387
     47 O7         -1.2500    1.5450   -3.6370 o         1 MOL     -0.759346
     48 O8         -3.1610    1.3090   -2.9150 o         1 MOL     -0.759346
     49 H21        -1.2310    3.6440   -1.5760 hn        1 MOL      0.229451
     50 H22        -2.5640    5.3810   -3.7380 h1        1 MOL      0.093456
     51 H23        -1.8110    3.5440   -4.9050 hc        1 MOL      0.081737
     52 H24        -3.5840    3.3730   -4.8450 hc        1 MOL      0.081737
     53 N5         -3.9520    4.2080   -1.0740 n         1 MOL     -0.187463
     54 C17        -5.1300    4.1930   -0.1590 c3        1 MOL     -0.201145
     55 C18        -5.8610    2.8550    0.0890 c         1 MOL      0.510772
     56 O9         -6.7890    2.8040    0.8210 o         1 MOL     -0.559846
     57 H25        -3.0460    3.9550   -0.7170 hn        1 MOL      0.137284
     58 H26        -5.8320    4.8240   -0.7010 h1        1 MOL      0.120529
     59 H27        -4.8600    4.6750    0.7750 h1        1 MOL      0.120529
     60 N6         -5.5490    1.8130   -0.6640 n         1 MOL     -0.083651
     61 C19        -6.3600    0.6310   -0.9470 c3        1 MOL     -0.232730
     62 C20        -6.4590   -0.4530    0.1830 c         1 MOL      0.358695
     63 O10        -7.3110   -1.3700    0.1120 o         1 MOL     -0.466024
     64 C21        -5.9150   -0.0220   -2.2830 c3        1 MOL     -0.103165
     65 C22        -4.9390   -1.1310   -2.1230 c         1 MOL      0.500476
     66 N7         -5.0860   -2.2540   -2.7690 n         1 MOL     -0.455439
     67 O11        -4.0320   -1.0270   -1.3200 o         1 MOL     -0.629989
     68 H28        -4.5880    1.7980   -0.9880 hn        1 MOL      0.171158
     69 H29        -7.3400    1.0770   -1.0520 h1        1 MOL      0.181105
     70 H30        -5.4350    0.7100   -2.9260 hc        1 MOL      0.069179
     71 H31        -6.8260   -0.4290   -2.7330 hc        1 MOL      0.069179
     72 H32        -5.7180   -2.2320   -3.5580 hn        1 MOL      0.270523
     73 H33        -4.2600   -2.8390   -2.8340 hn        1 MOL      0.270523
     74 N8         -5.6790   -0.4110    1.2610 n         1 MOL     -0.078111
     75 C23        -5.7860   -1.3570    2.4190 c3        1 MOL     -0.358648
     76 C24        -4.8830   -2.5830    2.3050 c         1 MOL      0.740628
     77 O12        -4.9450   -3.4680    3.1590 o         1 MOL     -0.585153
     78 H34        -4.8260    0.1260    1.1690 hn        1 MOL      0.145891
     79 H35        -6.8090   -1.7170    2.5370 h1        1 MOL      0.147630
     80 H36        -5.5170   -0.7690    3.2970 h1        1 MOL      0.147630
     81 N9         -3.9570   -2.4780    1.3300 n         1 MOL     -0.483746
     82 C25        -2.8980   -3.5220    1.0340 c3        1 MOL      0.156161
     83 C26        -1.5070   -2.9800    0.7380 c         1 MOL      0.501186
     84 O13        -1.3700   -2.0210    0.0120 o         1 MOL     -0.572229
     85 C27        -3.3520   -4.4670   -0.0780 c3        1 MOL      0.097058
     86 C28        -4.6260   -5.2880    0.2020 ca        1 MOL     -0.049202
     87 C29        -5.8390   -4.6890   -0.0640 ca        1 MOL     -0.097927
     88 C30        -4.5770   -6.5890    0.7160 ca        1 MOL     -0.097927
     89 C31        -6.9840   -5.4430   -0.0280 ca        1 MOL     -0.315410
     90 C32        -5.7580   -7.2760    0.8660 ca        1 MOL     -0.315410
     91 C33        -7.0030   -6.7580    0.4960 ca        1 MOL      0.424798
     92 O14        -8.0840   -7.5250    0.5820 oh        1 MOL     -0.469088
     93 H37        -3.9000   -1.6280    0.7780 hn        1 MOL      0.248723
     94 H38        -2.8330   -4.1110    1.9530 h1        1 MOL      0.021423
     95 H39        -2.5590   -5.2060   -0.1730 hc        1 MOL     -0.027242
     96 H40        -3.3640   -4.0010   -1.0700 hc        1 MOL     -0.027242
     97 H41        -5.8870   -3.6630   -0.3880 ha        1 MOL      0.107055
     98 H42        -3.6760   -7.0440    1.1010 ha        1 MOL      0.107055
     99 H43        -7.9040   -5.0350   -0.4320 ha        1 MOL      0.147470
    100 H44        -5.5510   -8.1860    1.4050 ha        1 MOL      0.147470
    101 H45        -7.8040   -8.3840    0.9220 ho        1 MOL      0.338021
    102 N10        -0.4460   -3.5590    1.4190 n         1 MOL     -0.499972
    103 C34         0.8950   -3.0370    1.2480 c3        1 MOL      0.144738
    104 C35         1.9430   -4.0770    0.6790 c         1 MOL      0.503840
    105 O15         1.9520   -5.2400    1.0320 o         1 MOL     -0.533695
    106 C36         1.3870   -2.3280    2.5280 c3        1 MOL     -0.008400
    107 C37         0.9140   -0.8750    2.5390 c3        1 MOL      0.000018
    108 C38         2.9510   -2.3180    2.7650 c3        1 MOL     -0.204423
    109 C39         1.1490   -0.0390    3.8540 c3        1 MOL     -0.012198
    110 H46        -0.7970   -4.2520    2.0690 hn        1 MOL      0.306461
    111 H47         0.9410   -2.2400    0.5090 h1        1 MOL      0.070392
    112 H48         0.8830   -2.7080    3.4160 hc        1 MOL      0.024297
    113 H49        -0.1480   -0.9030    2.2800 hc        1 MOL     -0.006680
    114 H50         1.4040   -0.3830    1.6950 hc        1 MOL     -0.006680
    115 H51         3.4810   -1.7270    2.0140 hc        1 MOL      0.049220
    116 H52         3.1480   -1.8040    3.7080 hc        1 MOL      0.049220
    117 H53         3.4780   -3.2730    2.8290 hc        1 MOL      0.049220
    118 H54         0.6880   -0.4070    4.7790 hc        1 MOL      0.010918
    119 H55         2.2120    0.0910    4.0700 hc        1 MOL      0.010918
    120 H56         0.7360    0.9590    3.7410 hc        1 MOL      0.010918
    121 N11         2.6960   -3.6070   -0.3000 n         1 MOL     -0.414806
    122 C40         3.8510   -4.3390   -0.7980 c3        1 MOL      0.137159
    123 C41         5.1800   -3.9980   -0.0590 c         1 MOL      0.451289
    124 O16         5.2790   -2.9370    0.5660 o         1 MOL     -0.341385
    125 C42         3.8860   -4.1160   -2.3080 c3        1 MOL     -0.123794
    126 O17         4.0830   -2.6950   -2.5110 oh        1 MOL     -0.446016
    127 H57         2.7270   -2.6320   -0.5440 hn        1 MOL      0.271813
    128 H58         3.7710   -5.4030   -0.6080 h1        1 MOL      0.055553
    129 H59         2.9760   -4.4430   -2.8000 h1        1 MOL      0.090119
    130 H60         4.7910   -4.5990   -2.7130 h1        1 MOL      0.090119
    131 H61         3.3230   -2.3130   -2.9530 ho        1 MOL      0.383930
    132 N12         6.2800   -4.8170   -0.1470 n         1 MOL     -0.533180
    133 C43         7.6250   -4.3790    0.2130 c3        1 MOL      0.261045
    134 C44         8.0420   -2.9640   -0.4140 c         1 MOL      0.316167
    135 O18         8.6050   -2.1410    0.2950 o         1 MOL     -0.484477
    136 C45         8.6240   -5.5040   -0.1390 c3        1 MOL     -0.196038
    137 H62         6.2920   -5.6590   -0.6990 hn        1 MOL      0.296318
    138 H63         7.6190   -4.2970    1.3010 h1        1 MOL      0.049354
    139 H64         8.9510   -5.5280   -1.1810 hc        1 MOL      0.055837
    140 H65         9.4480   -5.4790    0.5720 hc        1 MOL      0.055837
    141 H66         8.0180   -6.3920    0.0140 hc        1 MOL      0.055837
    142 N13         7.8320   -2.7130   -1.6910 n         1 MOL     -0.264857
    143 C46         8.2460   -1.4110   -2.3150 c3        1 MOL      0.077662
    144 C47         7.4850   -0.2100   -1.7980 c         1 MOL      0.427996
    145 O19         8.1330    0.7950   -1.5620 o         1 MOL     -0.520961
    146 C48         8.1330   -1.5480   -3.8330 c3        1 MOL     -0.223307
    147 H67         7.5570   -3.4940   -2.2640 hn        1 MOL      0.249768
    148 H68         9.2850   -1.1920   -2.0760 h1        1 MOL      0.093794
    149 H69         8.7730   -2.3600   -4.1660 hc        1 MOL      0.064314
    150 H70         7.0810   -1.7140   -4.0760 hc        1 MOL      0.064314
    151 H71         8.4710   -0.6430   -4.3350 hc        1 MOL      0.064314
    152 N14         6.1800   -0.3370   -1.4850 n         1 MOL     -0.121714
    153 C49         5.3800    0.6850   -0.8270 c3        1 MOL     -0.159858
    154 C50         5.7740    0.9330    0.6330 c         1 MOL      0.550352
    155 O20         5.7380    2.0840    1.0000 o         1 MOL     -0.576998
    156 C51         3.8370    0.3100   -0.9630 c3        1 MOL     -0.136477
    157 C52         2.8750    1.2460   -0.2640 c3        1 MOL     -0.032125
    158 C53         1.3940    0.9730   -0.6930 c         1 MOL      0.766579
    159 O21         0.5280    1.8460   -0.6550 o         1 MOL     -0.756406
    160 O22         1.0150   -0.1420   -1.0630 o         1 MOL     -0.756406
    161 H72         5.8140   -1.2400   -1.7750 hn        1 MOL      0.056234
    162 H73         5.5720    1.5740   -1.4160 h1        1 MOL      0.120239
    163 H74         3.5890   -0.6440   -0.5070 hc        1 MOL      0.048744
    164 H75         3.5980    0.1640   -2.0190 hc        1 MOL      0.048744
    165 H76         3.1030    2.3130   -0.3480 hc        1 MOL      0.042487
    166 H77         2.8920    1.1090    0.8150 hc        1 MOL      0.042487
    167 N15         6.0770   -0.1420    1.3790 n         1 MOL     -0.049902
    168 C54         6.5560   -0.1990    2.7810 c3        1 MOL     -0.304338
    169 H78         7.5670    0.2040    2.8350 h1        1 MOL      0.117638
    170 H79         5.8950    0.3930    3.4160 h1        1 MOL      0.117638
    171 H80         6.5590   -1.2340    3.1230 h1        1 MOL      0.117638
    172 H81         6.0200   -1.0450    0.9190 hn        1 MOL      0.065522
    173 Ca1        -1.5210    0.2000   -1.3670 Ca        1 MOL      1.762518
    174 O23        -1.0370   -1.9700   -2.9240 oh        1 MOL     -0.824706
    175 H82        -1.5080   -2.1350   -3.7340 ho        1 MOL      0.412051
    176 H83        -0.8070   -2.8410   -2.5980 ho        1 MOL      0.412051
@<TRIPOS>BOND
     1    1    2 1   
     2    1    4 1   
     3    1    5 1   
     4    1    6 1   
     5    2    3 2   
     6    2    7 1   
     7    7    8 1   
     8    7   15 1   
     9    8    9 1   
    10    8   11 1   
    11    8   16 1   
    12    9   10 2   
    13    9   19 1   
    14   11   12 1   
    15   11   17 1   
    16   11   18 1   
    17   12   13 1   
    18   12   14 1   
    19   19   20 1   
    20   19   28 1   
    21   20   21 1   
    22   20   23 1   
    23   20   29 1   
    24   21   22 2   
    25   21   41 1   
    26   23   24 1   
    27   23   30 1   
    28   23   31 1   
    29   24   25 1   
    30   24   32 1   
    31   24   33 1   
    32   25   26 1   
    33   25   34 1   
    34   25   35 1   
    35   26   27 1   
    36   26   36 1   
    37   26   37 1   
    38   27   38 1   
    39   27   39 1   
    40   27   40 1   
    41   41   42 1   
    42   41   49 1   
    43   42   43 1   
    44   42   45 1   
    45   42   50 1   
    46   43   44 2   
    47   43   53 1   
    48   45   46 1   
    49   45   51 1   
    50   45   52 1   
    51   46   47 1   
    52   46   48 1   
    53   53   54 1   
    54   53   57 1   
    55   54   55 1   
    56   54   58 1   
    57   54   59 1   
    58   55   56 2   
    59   55   60 1   
    60   60   61 1   
    61   60   68 1   
    62   61   62 1   
    63   61   64 1   
    64   61   69 1   
    65   62   63 2   
    66   62   74 1   
    67   64   65 1   
    68   64   70 1   
    69   64   71 1   
    70   65   66 1   
    71   65   67 2   
    72   66   72 1   
    73   66   73 1   
    74   74   75 1   
    75   74   78 1   
    76   75   76 1   
    77   75   79 1   
    78   75   80 1   
    79   76   77 2   
    80   76   81 1   
    81   81   82 1   
    82   81   93 1   
    83   82   83 1   
    84   82   85 1   
    85   82   94 1   
    86   83   84 2   
    87   83  102 1   
    88   85   86 1   
    89   85   95 1   
    90   85   96 1   
    91   86   87 ar  
    92   86   88 ar  
    93   87   89 ar  
    94   87   97 1   
    95   88   90 ar  
    96   88   98 1   
    97   89   91 ar  
    98   89   99 1   
    99   90   91 ar  
   100   90  100 1   
   101   91   92 1   
   102   92  101 1   
   103  102  103 1   
   104  102  110 1   
   105  103  104 1   
   106  103  106 1   
   107  103  111 1   
   108  104  105 2   
   109  104  121 1   
   110  106  107 1   
   111  106  108 1   
   112  106  112 1   
   113  107  109 1   
   114  107  113 1   
   115  107  114 1   
   116  108  115 1   
   117  108  116 1   
   118  108  117 1   
   119  109  118 1   
   120  109  119 1   
   121  109  120 1   
   122  121  122 1   
   123  121  127 1   
   124  122  123 1   
   125  122  125 1   
   126  122  128 1   
   127  123  124 2   
   128  123  132 1   
   129  125  126 1   
   130  125  129 1   
   131  125  130 1   
   132  126  131 1   
   133  132  133 1   
   134  132  137 1   
   135  133  134 1   
   136  133  136 1   
   137  133  138 1   
   138  134  135 2   
   139  134  142 1   
   140  136  139 1   
   141  136  140 1   
   142  136  141 1   
   143  142  143 1   
   144  142  147 1   
   145  143  144 1   
   146  143  146 1   
   147  143  148 1   
   148  144  145 2   
   149  144  152 1   
   150  146  149 1   
   151  146  150 1   
   152  146  151 1   
   153  152  153 1   
   154  152  161 1   
   155  153  154 1   
   156  153  156 1   
   157  153  162 1   
   158  154  155 2   
   159  154  167 1   
   160  156  157 1   
   161  156  163 1   
   162  156  164 1   
   163  157  158 1   
   164  157  165 1   
   165  157  166 1   
   166  158  159 1   
   167  158  160 1   
   168  167  168 1   
   169  167  172 1   
   170  168  169 1   
   171  168  170 1   
   172  168  171 1   
   173  174  175 1   
   174  174  176 1   
@<TRIPOS>SUBSTRUCTURE
     1 MOL         1 TEMP              0 ****  ****    0 ROOT
