@<TRIPOS>MOLECULE
MOL
  183   181     1     0     0
SMALL
resp


@<TRIPOS>ATOM
      1 C1          0.5790    2.6760   -6.1420 c3        1 MOL     -0.346984
      2 C2          0.9240    2.3150   -4.7230 c         1 MOL      0.819401
      3 O1          0.0770    2.4250   -3.8550 o         1 MOL     -0.621280
      4 H1          0.0100    1.8650   -6.5940 hc        1 MOL      0.075868
      5 H2         -0.0180    3.5880   -6.1500 hc        1 MOL      0.075868
      6 H3          1.4950    2.8360   -6.7090 hc        1 MOL      0.075868
      7 N1          2.1780    1.9910   -4.4250 n         1 MOL     -0.692495
      8 C3          2.5680    1.6980   -3.0220 c3        1 MOL      0.180139
      9 C4          3.0860    3.0140   -2.3480 c         1 MOL      0.623403
     10 O2          3.8610    3.8020   -2.9140 o         1 MOL     -0.592796
     11 C5          3.5920    0.5920   -3.0900 c3        1 MOL     -0.302092
     12 C6          4.3420    0.3490   -1.7630 c         1 MOL      0.635615
     13 O3          5.5160   -0.0730   -1.7620 o         1 MOL     -0.579570
     14 O4          3.6990    0.6470   -0.7270 o         1 MOL     -0.579570
     15 H4          2.8250    1.7320   -5.1570 hn        1 MOL      0.340698
     16 H5          1.7150    1.2840   -2.4860 h1        1 MOL      0.033274
     17 H6          4.3060    0.7830   -3.8900 hc        1 MOL      0.060011
     18 H7          3.1210   -0.3720   -3.2980 hc        1 MOL      0.060011
     19 N2          2.5100    3.3950   -1.1720 n         1 MOL     -0.334315
     20 C7          2.6040    4.7670   -0.6800 c3        1 MOL     -0.242270
     21 C8          3.8060    4.8230    0.2340 c         1 MOL      0.745675
     22 O5          4.3530    5.9140    0.4610 o         1 MOL     -0.615863
     23 C9          1.3020    5.1290    0.0010 c3        1 MOL      0.330178
     24 C10         0.1630    5.1240   -1.0130 c3        1 MOL      0.009564
     25 C11         1.4850    6.5680    0.5040 c3        1 MOL     -0.290431
     26 C12        -1.2480    5.6110   -0.4790 c3        1 MOL     -0.136903
     27 H8          1.9050    2.7280   -0.7120 hn        1 MOL      0.252183
     28 H9          2.7790    5.3650   -1.5760 h1        1 MOL      0.116141
     29 H10         1.0640    4.4770    0.8440 hc        1 MOL     -0.007008
     30 H11         0.0050    4.1440   -1.4470 hc        1 MOL     -0.006225
     31 H12         0.5980    5.7920   -1.7540 hc        1 MOL     -0.006225
     32 H13         1.9990    7.1440   -0.2660 hc        1 MOL      0.048579
     33 H14         0.5540    7.0600    0.7510 hc        1 MOL      0.048579
     34 H15         2.1380    6.6620    1.3770 hc        1 MOL      0.048579
     35 H16        -1.3910    5.4050    0.5810 hc        1 MOL      0.022361
     36 H17        -1.4180    6.6760   -0.6670 hc        1 MOL      0.022361
     37 H18        -2.0990    5.0870   -0.9150 hc        1 MOL      0.022361
     38 N3          4.3440    3.7160    0.7750 n         1 MOL     -0.780998
     39 C13         5.2720    3.6950    1.9050 c3        1 MOL      0.476694
     40 C14         6.5110    2.8150    1.6770 c         1 MOL      0.325238
     41 O6          7.4600    3.0080    2.4090 o         1 MOL     -0.535697
     42 C15         4.6360    3.4360    3.2650 c3        1 MOL     -0.232004
     43 C16         3.9940    2.0810    3.4400 c         1 MOL      0.778742
     44 O7          3.4600    1.6520    4.4800 o         1 MOL     -0.714956
     45 O8          3.9890    1.3280    2.4560 o         1 MOL     -0.714956
     46 H19         3.8840    2.8360    0.5840 hn        1 MOL      0.337165
     47 H20         5.7200    4.6770    2.0760 h1        1 MOL     -0.015423
     48 H21         3.8980    4.2100    3.4520 hc        1 MOL      0.029077
     49 H22         5.4370    3.5780    3.9910 hc        1 MOL      0.029077
     50 N4          6.4820    1.9630    0.6640 n         1 MOL     -0.085308
     51 C17         7.7240    1.3990    0.1390 c3        1 MOL     -0.250378
     52 C18         8.0470    0.0250    0.7260 c         1 MOL      0.599222
     53 O9          9.2140   -0.0630    1.1000 o         1 MOL     -0.600710
     54 H23         5.6140    1.6880    0.2200 hn        1 MOL      0.128495
     55 H24         8.5660    2.0230    0.4320 h1        1 MOL      0.102662
     56 H25         7.5870    1.3650   -0.9420 h1        1 MOL      0.102662
     57 N5          7.0790   -0.9050    0.7910 n         1 MOL     -0.237400
     58 C19         7.2400   -2.3930    1.1590 c3        1 MOL      0.001048
     59 C20         7.0920   -3.3050   -0.0940 c         1 MOL      0.407732
     60 O10         7.2300   -4.5220    0.0460 o         1 MOL     -0.518908
     61 C21         6.2820   -2.8550    2.2340 c3        1 MOL      0.012520
     62 C22         4.8220   -2.4710    2.0250 c         1 MOL      0.592778
     63 O11         4.0640   -2.2220    2.9920 o         1 MOL     -0.669779
     64 O12         4.4380   -2.2370    0.8580 o         1 MOL     -0.669779
     65 H26         6.2200   -0.6040    0.3560 hn        1 MOL      0.033558
     66 H27         8.2550   -2.6160    1.4880 h1        1 MOL      0.066679
     67 H28         6.5100   -2.3220    3.1650 hc        1 MOL      0.008679
     68 H29         6.4400   -3.9060    2.4750 hc        1 MOL      0.008679
     69 N6          6.7210   -2.6820   -1.2260 n         1 MOL     -0.241257
     70 C23         6.4440   -3.3830   -2.4610 c3        1 MOL     -0.096749
     71 C24         5.1420   -4.1790   -2.4960 c         1 MOL      0.517102
     72 O13         5.0590   -5.1920   -3.2610 o         1 MOL     -0.575961
     73 H30         6.5070   -1.6960   -1.2270 hn        1 MOL      0.202852
     74 H31         7.2140   -4.1450   -2.5700 h1        1 MOL      0.062288
     75 H32         6.4620   -2.6500   -3.2680 h1        1 MOL      0.062288
     76 N7          4.1220   -3.7030   -1.6830 n         1 MOL     -0.271999
     77 C25         2.7160   -4.1810   -1.7520 c3        1 MOL      0.020903
     78 C26         1.6970   -3.0200   -1.6100 c         1 MOL      0.713856
     79 O14         2.0220   -1.9500   -1.1340 o         1 MOL     -0.788520
     80 C27         2.4890   -5.3740   -0.7920 c3        1 MOL     -0.154494
     81 C28         2.6510   -5.1260    0.7660 c3        1 MOL     -0.267601
     82 C29         1.4530   -4.2910    1.2620 c         1 MOL      0.619598
     83 N8          0.4130   -4.9200    1.6950 n         1 MOL     -0.651867
     84 O15         1.3650   -3.1080    1.2950 o         1 MOL     -0.584235
     85 H33         4.3260   -2.9790   -1.0100 hn        1 MOL      0.284972
     86 H34         2.4870   -4.5170   -2.7590 h1        1 MOL      0.024932
     87 H35         3.2410   -6.0750   -1.1570 hc        1 MOL      0.057860
     88 H36         1.5270   -5.8150   -1.0560 hc        1 MOL      0.057860
     89 H37         3.6320   -4.6880    0.9500 hc        1 MOL      0.106701
     90 H38         2.5600   -6.0880    1.2770 hc        1 MOL      0.106701
     91 H39         0.5480   -5.9300    1.7320 hn        1 MOL      0.310851
     92 H40        -0.3960   -4.4040    2.0080 hn        1 MOL      0.310851
     93 N9          0.4400   -3.2000   -2.0040 n         1 MOL     -0.493567
     94 C30        -0.5930   -2.1670   -2.0240 c3        1 MOL     -0.047423
     95 C31        -1.8260   -2.5790   -1.2990 c         1 MOL      0.300867
     96 O16        -2.5460   -3.5360   -1.7100 o         1 MOL     -0.540671
     97 C32        -0.8590   -1.8160   -3.5300 c3        1 MOL      0.201218
     98 C33        -1.8550   -0.6530   -3.5270 c3        1 MOL     -0.352214
     99 C34         0.3590   -1.3760   -4.3870 c3        1 MOL     -0.352214
    100 H41         0.2930   -4.0340   -2.5490 hn        1 MOL      0.287569
    101 H42        -0.1450   -1.3100   -1.5210 h1        1 MOL      0.254363
    102 H43        -1.4050   -2.5950   -4.0630 hc        1 MOL     -0.005222
    103 H44        -1.3740    0.1360   -2.9540 hc        1 MOL      0.088512
    104 H45        -1.9050   -0.2250   -4.5290 hc        1 MOL      0.088512
    105 H46        -2.7800   -1.0420   -3.0890 hc        1 MOL      0.088512
    106 H47         0.7530   -0.5190   -3.8410 hc        1 MOL      0.088512
    107 H48         1.1800   -2.0960   -4.3020 hc        1 MOL      0.088512
    108 H49         0.1940   -1.2130   -5.4510 hc        1 MOL      0.088512
    109 N10        -2.0550   -2.0060   -0.1050 n         1 MOL     -0.045839
    110 C35        -3.1590   -2.3280    0.7570 c3        1 MOL      0.030864
    111 C36        -4.4700   -1.8160    0.1190 c         1 MOL      0.284661
    112 O17        -4.3910   -0.8980   -0.7580 o         1 MOL     -0.258655
    113 C37        -2.9820   -1.9770    2.2770 c3        1 MOL     -0.301116
    114 C38        -1.7840   -2.6040    2.9190 c         1 MOL      0.765607
    115 N11        -0.6790   -1.9300    2.7880 n         1 MOL     -0.782760
    116 O18        -1.8100   -3.7080    3.4150 o         1 MOL     -0.618703
    117 H50        -1.3080   -1.3660    0.1420 hn        1 MOL      0.217653
    118 H51        -3.1790   -3.4170    0.6800 h1        1 MOL      0.050392
    119 H52        -3.8490   -2.4420    2.7490 hc        1 MOL      0.077156
    120 H53        -2.9020   -0.8910    2.3560 hc        1 MOL      0.077156
    121 H54        -0.6850   -1.0280    2.3540 hn        1 MOL      0.373269
    122 H55         0.1880   -2.4470    2.8410 hn        1 MOL      0.373269
    123 N12        -5.6900   -2.3510    0.4980 n         1 MOL     -0.472210
    124 C39        -6.9640   -1.7390   -0.0130 c3        1 MOL      0.102690
    125 C40        -6.9790   -0.2710    0.2680 c         1 MOL      0.650351
    126 O19        -7.2710    0.5730   -0.5880 o         1 MOL     -0.572712
    127 C41        -8.1520   -2.4160    0.5660 c3        1 MOL     -0.076194
    128 C42        -9.5000   -1.8790    0.0030 ca        1 MOL      0.068399
    129 C43       -10.2240   -2.4840   -1.0850 ca        1 MOL     -0.289261
    130 C44        -9.9770   -0.6330    0.5750 ca        1 MOL     -0.289261
    131 C45       -11.2940   -1.8450   -1.6890 ca        1 MOL     -0.065086
    132 C46       -11.1250   -0.0430   -0.0480 ca        1 MOL     -0.065086
    133 C47       -11.8410   -0.6630   -1.1420 ca        1 MOL      0.148740
    134 O20       -12.8400   -0.0030   -1.7670 oh        1 MOL     -0.497879
    135 H56        -5.6600   -3.0770    1.2040 hn        1 MOL      0.305030
    136 H57        -6.9980   -1.8550   -1.0980 h1        1 MOL      0.073312
    137 H58        -8.2420   -2.4260    1.6520 hc        1 MOL      0.037557
    138 H59        -8.1180   -3.4520    0.2450 hc        1 MOL      0.037557
    139 H60        -9.8470   -3.4140   -1.5040 ha        1 MOL      0.159566
    140 H61        -9.3250   -0.1330    1.2790 ha        1 MOL      0.159566
    141 H62       -11.8720   -2.3600   -2.4430 ha        1 MOL      0.097780
    142 H63       -11.4300    0.9420    0.2560 ha        1 MOL      0.097780
    143 H64       -13.2320    0.7660   -1.3410 ho        1 MOL      0.395228
    144 N13        -6.4870    0.1260    1.4560 n         1 MOL     -0.247378
    145 C48        -6.3690    1.5060    1.8960 c3        1 MOL     -0.143820
    146 C49        -5.4000    2.3500    1.0590 c         1 MOL      0.366407
    147 O21        -5.5200    3.5720    0.9800 o         1 MOL     -0.534183
    148 C50        -6.0970    1.5720    3.4260 c3        1 MOL      0.091463
    149 C51        -4.8070    0.8670    3.8320 c3        1 MOL     -0.276896
    150 C52        -4.6800    0.7100    5.3650 c         1 MOL      0.714485
    151 O22        -3.7580    1.2420    6.0180 o         1 MOL     -0.729142
    152 O23        -5.5500    0.0090    5.9210 o         1 MOL     -0.729142
    153 H65        -6.2060   -0.5410    2.1690 hn        1 MOL      0.177521
    154 H66        -7.3940    1.8560    1.8460 h1        1 MOL      0.091928
    155 H67        -6.9380    1.1130    3.9360 hc        1 MOL      0.010334
    156 H68        -6.1560    2.6480    3.6130 hc        1 MOL      0.010334
    157 H69        -3.9480    1.4570    3.5150 hc        1 MOL      0.059762
    158 H70        -4.6910   -0.1390    3.4160 hc        1 MOL      0.059762
    159 N14        -4.3800    1.8200    0.3700 n         1 MOL     -0.039142
    160 C53        -3.5530    2.4780   -0.6250 c3        1 MOL     -0.229191
    161 C54        -4.1910    2.4380   -2.0350 c         1 MOL      0.475657
    162 O24        -4.0860    3.4150   -2.7540 o         1 MOL     -0.555718
    163 C55        -2.1100    1.9700   -0.6670 c3        1 MOL     -0.002511
    164 C56        -1.3190    2.0800    0.6180 c3        1 MOL     -0.001896
    165 C57        -0.0600    1.2030    0.6170 c         1 MOL      0.607694
    166 O25         1.0550    1.7030    0.5390 o         1 MOL     -0.722622
    167 O26        -0.1400   -0.0600    0.6830 o         1 MOL     -0.722622
    168 H71        -4.3270    0.8100    0.4000 hn        1 MOL      0.120310
    169 H72        -3.5010    3.5550   -0.4480 h1        1 MOL      0.168126
    170 H73        -1.5640    2.3740   -1.5210 hc        1 MOL      0.052164
    171 H74        -2.1680    0.8970   -0.8110 hc        1 MOL      0.052164
    172 H75        -1.8960    1.7020    1.4540 hc        1 MOL      0.008031
    173 H76        -1.0640    3.1040    0.9150 hc        1 MOL      0.008031
    174 N15        -5.0640    1.5010   -2.3160 n         1 MOL     -0.004017
    175 C58        -5.6180    1.3670   -3.6330 c3        1 MOL     -0.307118
    176 H77        -5.7620    0.3110   -3.8600 h1        1 MOL      0.098605
    177 H78        -6.5770    1.8820   -3.6770 h1        1 MOL      0.098605
    178 H79        -4.9350    1.8050   -4.3610 h1        1 MOL      0.098605
    179 H80        -5.0760    0.6640   -1.7640 hn        1 MOL      0.023091
    180 Ca1         2.5150   -0.5120    1.1650 Ca        1 MOL      1.757913
    181 O27         1.6660   -0.0780    3.6740 oh        1 MOL     -0.937847
    182 H81         2.3140    0.5730    3.9340 ho        1 MOL      0.432810
    183 H82         1.0580   -0.1280    4.4040 ho        1 MOL      0.432810
@<TRIPOS>BOND
     1    1    2 1   
     2    1    4 1   
     3    1    5 1   
     4    1    6 1   
     5    2    3 2   
     6    2    7 1   
     7    7    8 1   
     8    7   15 1   
     9    8    9 1   
    10    8   11 1   
    11    8   16 1   
    12    9   10 2   
    13    9   19 1   
    14   11   12 1   
    15   11   17 1   
    16   11   18 1   
    17   12   13 1   
    18   12   14 1   
    19   19   20 1   
    20   19   27 1   
    21   20   21 1   
    22   20   23 1   
    23   20   28 1   
    24   21   22 2   
    25   21   38 1   
    26   23   24 1   
    27   23   25 1   
    28   23   29 1   
    29   24   26 1   
    30   24   30 1   
    31   24   31 1   
    32   25   32 1   
    33   25   33 1   
    34   25   34 1   
    35   26   35 1   
    36   26   36 1   
    37   26   37 1   
    38   38   39 1   
    39   38   46 1   
    40   39   40 1   
    41   39   42 1   
    42   39   47 1   
    43   40   41 2   
    44   40   50 1   
    45   42   43 1   
    46   42   48 1   
    47   42   49 1   
    48   43   44 1   
    49   43   45 1   
    50   50   51 1   
    51   50   54 1   
    52   51   52 1   
    53   51   55 1   
    54   51   56 1   
    55   52   53 2   
    56   52   57 1   
    57   57   58 1   
    58   57   65 1   
    59   58   59 1   
    60   58   61 1   
    61   58   66 1   
    62   59   60 2   
    63   59   69 1   
    64   61   62 1   
    65   61   67 1   
    66   61   68 1   
    67   62   63 1   
    68   62   64 1   
    69   69   70 1   
    70   69   73 1   
    71   70   71 1   
    72   70   74 1   
    73   70   75 1   
    74   71   72 2   
    75   71   76 1   
    76   76   77 1   
    77   76   85 1   
    78   77   78 1   
    79   77   80 1   
    80   77   86 1   
    81   78   79 2   
    82   78   93 1   
    83   80   81 1   
    84   80   87 1   
    85   80   88 1   
    86   81   82 1   
    87   81   89 1   
    88   81   90 1   
    89   82   83 1   
    90   82   84 2   
    91   83   91 1   
    92   83   92 1   
    93   93   94 1   
    94   93  100 1   
    95   94   95 1   
    96   94   97 1   
    97   94  101 1   
    98   95   96 2   
    99   95  109 1   
   100   97   98 1   
   101   97   99 1   
   102   97  102 1   
   103   98  103 1   
   104   98  104 1   
   105   98  105 1   
   106   99  106 1   
   107   99  107 1   
   108   99  108 1   
   109  109  110 1   
   110  109  117 1   
   111  110  111 1   
   112  110  113 1   
   113  110  118 1   
   114  111  112 2   
   115  111  123 1   
   116  113  114 1   
   117  113  119 1   
   118  113  120 1   
   119  114  115 1   
   120  114  116 2   
   121  115  121 1   
   122  115  122 1   
   123  123  124 1   
   124  123  135 1   
   125  124  125 1   
   126  124  127 1   
   127  124  136 1   
   128  125  126 2   
   129  125  144 1   
   130  127  128 1   
   131  127  137 1   
   132  127  138 1   
   133  128  129 ar  
   134  128  130 ar  
   135  129  131 ar  
   136  129  139 1   
   137  130  132 ar  
   138  130  140 1   
   139  131  133 ar  
   140  131  141 1   
   141  132  133 ar  
   142  132  142 1   
   143  133  134 1   
   144  134  143 1   
   145  144  145 1   
   146  144  153 1   
   147  145  146 1   
   148  145  148 1   
   149  145  154 1   
   150  146  147 2   
   151  146  159 1   
   152  148  149 1   
   153  148  155 1   
   154  148  156 1   
   155  149  150 1   
   156  149  157 1   
   157  149  158 1   
   158  150  151 1   
   159  150  152 1   
   160  159  160 1   
   161  159  168 1   
   162  160  161 1   
   163  160  163 1   
   164  160  169 1   
   165  161  162 2   
   166  161  174 1   
   167  163  164 1   
   168  163  170 1   
   169  163  171 1   
   170  164  165 1   
   171  164  172 1   
   172  164  173 1   
   173  165  166 1   
   174  165  167 1   
   175  174  175 1   
   176  174  179 1   
   177  175  176 1   
   178  175  177 1   
   179  175  178 1   
   180  181  182 1   
   181  181  183 1   
@<TRIPOS>SUBSTRUCTURE
     1 MOL         1 TEMP              0 ****  ****    0 ROOT
