@<TRIPOS>MOLECULE
MOL
  179   176     1     0     0
SMALL
resp


@<TRIPOS>ATOM
      1 C1          2.7090    2.4830    4.8210 c3        1 MOL     -0.247060
      2 C2          1.7430    2.2980    3.6000 c         1 MOL      0.533287
      3 O1          2.2160    2.3100    2.4460 o         1 MOL     -0.520194
      4 H1          2.5140    3.4450    5.2940 hc        1 MOL      0.075549
      5 H2          2.5410    1.6830    5.5420 hc        1 MOL      0.075549
      6 H3          3.7420    2.4510    4.4760 hc        1 MOL      0.075549
      7 N1          0.4220    2.2120    3.7800 n         1 MOL     -0.516617
      8 C3         -0.5270    2.2310    2.6440 c3        1 MOL      0.259518
      9 C4         -0.7950    3.7030    2.2560 c         1 MOL      0.432469
     10 O2         -1.8790    4.1910    2.3310 o         1 MOL     -0.468649
     11 C5         -1.8390    1.4330    3.0540 c3        1 MOL     -0.391993
     12 C6         -2.9060    1.4570    1.9060 c         1 MOL      0.818375
     13 O3         -4.0820    1.1850    2.1650 o         1 MOL     -0.689591
     14 O4         -2.5090    1.5300    0.7180 o         1 MOL     -0.689591
     15 H4         -0.0180    2.2720    4.6800 hn        1 MOL      0.307643
     16 H5         -0.0640    1.7430    1.7850 h1        1 MOL      0.060504
     17 H6         -2.2310    1.8790    3.9690 hc        1 MOL      0.093446
     18 H7         -1.5630    0.3820    3.1550 hc        1 MOL      0.093446
     19 N2          0.1920    4.3710    1.6840 n         1 MOL     -0.291478
     20 C7          0.0530    5.8040    1.3390 c3        1 MOL     -0.240054
     21 C8         -1.0050    6.1350    0.3190 c         1 MOL      0.558398
     22 O5         -1.3470    7.2680    0.1260 o         1 MOL     -0.545778
     23 C9          1.3810    6.4090    0.9690 c3        1 MOL     -0.041296
     24 C10         2.0800    5.7820   -0.2820 c3        1 MOL      0.192663
     25 C11         3.4360    6.4460   -0.7600 c3        1 MOL     -0.164936
     26 C12         4.3130    5.5410   -1.6640 c3        1 MOL     -0.068581
     27 N3          3.6040    4.9930   -2.8100 n4        1 MOL     -0.253475
     28 H8          1.0940    3.9410    1.5350 hn        1 MOL      0.245897
     29 H9         -0.3680    6.1550    2.2840 h1        1 MOL      0.156462
     30 H10         2.1210    6.3580    1.7690 hc        1 MOL      0.046556
     31 H11         1.2670    7.4730    0.8210 hc        1 MOL      0.046556
     32 H12         1.3450    5.9260   -1.0680 hc        1 MOL     -0.010828
     33 H13         2.2920    4.7330   -0.0410 hc        1 MOL     -0.010828
     34 H14         4.0380    6.6270    0.1270 hc        1 MOL      0.070861
     35 H15         3.1850    7.3930   -1.2360 hc        1 MOL      0.070861
     36 H16         4.5200    4.6420   -1.0890 hx        1 MOL      0.133798
     37 H17         5.2150    6.0240   -2.0240 hx        1 MOL      0.133798
     38 H18         4.1990    4.4000   -3.3730 hn        1 MOL      0.295638
     39 H19         2.8030    4.4380   -2.5470 hn        1 MOL      0.295638
     40 H20         3.2140    5.7320   -3.3850 hn        1 MOL      0.295638
     41 N4         -1.4530    5.1680   -0.5380 n         1 MOL     -0.182126
     42 C13        -2.4790    5.3650   -1.5150 c3        1 MOL      0.024800
     43 C14        -3.9110    5.0020   -1.1940 c         1 MOL      0.427388
     44 O6         -4.9080    5.5220   -1.6980 o         1 MOL     -0.540029
     45 C15        -2.0030    4.5860   -2.7760 c3        1 MOL     -0.144085
     46 C16        -1.8380    3.0740   -2.5070 c         1 MOL      0.693547
     47 O7         -2.7950    2.2730   -2.6470 o         1 MOL     -0.758907
     48 O8         -0.7260    2.7010   -2.0240 o         1 MOL     -0.758907
     49 H21        -0.9840    4.2940   -0.3890 hn        1 MOL      0.064053
     50 H22        -2.3940    6.4150   -1.7860 h1        1 MOL      0.083622
     51 H23        -1.0600    4.9650   -3.1810 hc        1 MOL      0.029397
     52 H24        -2.8160    4.8880   -3.4470 hc        1 MOL      0.029397
     53 N5         -4.0980    4.1090   -0.1960 n         1 MOL      0.048164
     54 C17        -5.3870    3.9430    0.4340 c3        1 MOL     -0.373897
     55 C18        -6.1890    2.6770    0.0120 c         1 MOL      0.566158
     56 O9         -7.1920    2.4590    0.6620 o         1 MOL     -0.556599
     57 H25        -3.3810    3.5820    0.2920 hn        1 MOL     -0.015882
     58 H26        -6.0320    4.8130    0.3180 h1        1 MOL      0.159108
     59 H27        -5.1660    3.8120    1.4950 h1        1 MOL      0.159108
     60 N6         -5.6430    1.8110   -0.8330 n         1 MOL     -0.289975
     61 C19        -6.3740    0.6490   -1.2100 c3        1 MOL      0.002627
     62 C20        -6.6080   -0.4400   -0.1470 c         1 MOL      0.321466
     63 O10        -7.4830   -1.2670   -0.4040 o         1 MOL     -0.496123
     64 C21        -5.8690    0.0900   -2.5600 c3        1 MOL     -0.176819
     65 C22        -4.5110   -0.6610   -2.5920 c         1 MOL      0.658044
     66 N7         -4.1340   -1.3310   -3.6890 n         1 MOL     -0.715180
     67 O11        -3.8080   -0.7080   -1.6140 o         1 MOL     -0.456004
     68 H28        -4.7420    2.0570   -1.2150 hn        1 MOL      0.219179
     69 H29        -7.3800    0.9540   -1.5060 h1        1 MOL      0.092939
     70 H30        -5.8730    0.8830   -3.3010 hc        1 MOL      0.065548
     71 H31        -6.5270   -0.6910   -2.9470 hc        1 MOL      0.065548
     72 H32        -4.6500   -1.1270   -4.5310 hn        1 MOL      0.317013
     73 H33        -3.3160   -1.9130   -3.7160 hn        1 MOL      0.317013
     74 N8         -5.8850   -0.3750    0.9680 n         1 MOL     -0.073590
     75 C23        -5.9590   -1.3150    2.0650 c3        1 MOL     -0.197009
     76 C24        -5.0430   -2.4750    1.9870 c         1 MOL      0.534861
     77 O12        -5.2780   -3.3680    2.7940 o         1 MOL     -0.579419
     78 H34        -5.2400    0.4000    0.9950 hn        1 MOL      0.265410
     79 H35        -7.0020   -1.5980    2.1090 h1        1 MOL      0.110683
     80 H36        -5.6990   -0.8240    3.0030 h1        1 MOL      0.110683
     81 N9         -4.0270   -2.5520    1.0800 n         1 MOL     -0.047697
     82 C25        -2.9170   -3.4880    1.0350 c3        1 MOL      0.134153
     83 C26        -1.6180   -2.6830    1.1040 c         1 MOL      0.373107
     84 O13        -1.5560   -1.5760    0.5500 o         1 MOL     -0.585079
     85 C27        -3.1440   -4.4100   -0.1730 c3        1 MOL      0.061107
     86 C28        -4.4430   -5.0690   -0.2960 ca        1 MOL      0.004028
     87 C29        -4.6370   -6.2990    0.2980 ca        1 MOL     -0.228755
     88 C30        -5.5350   -4.5120   -1.1050 ca        1 MOL     -0.228755
     89 C31        -5.8700   -7.0370    0.1200 ca        1 MOL     -0.155626
     90 C32        -6.7520   -5.2570   -1.3220 ca        1 MOL     -0.155626
     91 C33        -6.8560   -6.5640   -0.7860 ca        1 MOL      0.242739
     92 O14        -7.8940   -7.3540   -1.2410 oh        1 MOL     -0.438327
     93 H37        -4.0120   -1.6860    0.5530 hn        1 MOL     -0.028331
     94 H38        -2.8850   -4.0980    1.9240 h1        1 MOL     -0.002135
     95 H39        -2.2970   -5.0880   -0.1730 hc        1 MOL      0.003962
     96 H40        -3.1290   -3.8410   -1.1070 hc        1 MOL      0.003962
     97 H41        -3.8430   -6.7210    0.9050 ha        1 MOL      0.135761
     98 H42        -5.4570   -3.5090   -1.4900 ha        1 MOL      0.135761
     99 H43        -5.9490   -7.9740    0.6400 ha        1 MOL      0.131053
    100 H44        -7.6330   -4.9180   -1.8600 ha        1 MOL      0.131053
    101 H45        -7.7120   -8.2480   -0.9560 ho        1 MOL      0.323729
    102 N10        -0.5610   -3.2660    1.7640 n         1 MOL     -0.362937
    103 C34         0.7770   -2.7650    1.7920 c3        1 MOL     -0.033540
    104 C35         1.6030   -3.6060    0.7990 c         1 MOL      0.495032
    105 O15         1.4500   -4.8600    0.8040 o         1 MOL     -0.553034
    106 C36         1.3890   -2.6450    3.2190 c3        1 MOL      0.178227
    107 C37         0.5710   -1.8550    4.2280 c3        1 MOL      0.227815
    108 C38         2.7460   -1.9040    3.0970 c3        1 MOL     -0.225712
    109 C39         1.1050   -1.9880    5.6400 c3        1 MOL     -0.369959
    110 H46        -0.8130   -4.0980    2.2700 hn        1 MOL      0.271069
    111 H47         0.7310   -1.7590    1.3720 h1        1 MOL      0.219027
    112 H48         1.5540   -3.6330    3.6430 hc        1 MOL     -0.013053
    113 H49        -0.4210   -2.3160    4.2820 hc        1 MOL     -0.047500
    114 H50         0.3450   -0.8470    3.8620 hc        1 MOL     -0.047500
    115 H51         2.8380   -1.0200    2.4580 hc        1 MOL      0.033730
    116 H52         3.1770   -1.6420    4.0620 hc        1 MOL      0.033730
    117 H53         3.5530   -2.5760    2.7820 hc        1 MOL      0.033730
    118 H54         2.0440   -1.4290    5.6680 hc        1 MOL      0.088032
    119 H55         0.3990   -1.6050    6.3730 hc        1 MOL      0.088032
    120 H56         1.3270   -3.0400    5.8310 hc        1 MOL      0.088032
    121 N11         2.5560   -3.0070   -0.0130 n         1 MOL     -0.099075
    122 C40         3.4640   -3.6570   -0.8410 c3        1 MOL      0.137447
    123 C41         4.9620   -3.5310   -0.2730 c         1 MOL      0.343916
    124 O16         5.1930   -2.7600    0.6110 o         1 MOL     -0.326008
    125 C42         3.2800   -3.1210   -2.2550 c3        1 MOL     -0.323166
    126 O17         3.9450   -1.8670   -2.4510 oh        1 MOL     -0.411133
    127 H57         2.7500   -2.0560    0.2890 hn        1 MOL     -0.101998
    128 H58         3.1880   -4.7170   -0.8440 h1        1 MOL      0.039253
    129 H59         2.2190   -2.9480   -2.4170 h1        1 MOL      0.143711
    130 H60         3.7100   -3.8630   -2.9280 h1        1 MOL      0.143711
    131 H61         3.4880   -1.3890   -3.1540 ho        1 MOL      0.388059
    132 N12         5.9150   -4.2130   -0.8630 n         1 MOL     -0.385766
    133 C43         7.3360   -4.1090   -0.3940 c3        1 MOL      0.127141
    134 C44         7.9260   -2.7120   -0.8210 c         1 MOL      0.478903
    135 O18         8.7050   -2.0810   -0.0730 o         1 MOL     -0.490512
    136 C45         8.1810   -5.2250   -0.9780 c3        1 MOL     -0.458649
    137 H62         5.6900   -4.9250   -1.5480 hn        1 MOL      0.300511
    138 H63         7.3710   -4.1630    0.6990 h1        1 MOL      0.105650
    139 H64         9.1740   -4.7660   -0.9380 hc        1 MOL      0.139114
    140 H65         8.1970   -6.1400   -0.3870 hc        1 MOL      0.139114
    141 H66         7.8550   -5.4970   -1.9790 hc        1 MOL      0.139114
    142 N13         7.6560   -2.2070   -2.0650 n         1 MOL     -0.447281
    143 C46         7.9220   -0.8520   -2.4750 c3        1 MOL      0.134310
    144 C47         7.2220    0.1810   -1.6080 c         1 MOL      0.311057
    145 O19         7.7190    1.3130   -1.4480 o         1 MOL     -0.526117
    146 C48         7.5320   -0.8250   -3.9970 c3        1 MOL     -0.230051
    147 H67         7.0930   -2.6980   -2.7430 hn        1 MOL      0.266496
    148 H68         9.0040   -0.7400   -2.3830 h1        1 MOL      0.095707
    149 H69         8.0560    0.0250   -4.4340 hc        1 MOL      0.068061
    150 H70         7.9620   -1.7090   -4.4570 hc        1 MOL      0.068061
    151 H71         6.4570   -0.8570   -4.1580 hc        1 MOL      0.068061
    152 N14         6.1060   -0.2210   -0.9730 n         1 MOL      0.162677
    153 C49         5.3500    0.5820   -0.0700 c3        1 MOL     -0.050390
    154 C50         6.0050    0.5440    1.3470 c         1 MOL      0.514387
    155 O20         6.2000    1.6500    1.9110 o         1 MOL     -0.547978
    156 C51         3.9340    0.2220    0.0350 c3        1 MOL     -0.064648
    157 C52         2.9690    0.9780   -0.8890 c3        1 MOL     -0.075117
    158 C53         1.6000    0.2680   -1.0070 c         1 MOL      0.568548
    159 O21         1.1180   -0.1110   -2.1290 o         1 MOL     -0.712842
    160 O22         0.8690    0.1990    0.0340 o         1 MOL     -0.712842
    161 H72         5.6230   -0.9980   -1.3840 hn        1 MOL     -0.073642
    162 H73         5.4160    1.6520   -0.2610 h1        1 MOL      0.005937
    163 H74         3.6780    0.5460    1.0450 hc        1 MOL      0.100256
    164 H75         3.7990   -0.8630   -0.0480 hc        1 MOL      0.100256
    165 H76         3.4220    1.1610   -1.8570 hc        1 MOL      0.008630
    166 H77         2.7540    1.9030   -0.3620 hc        1 MOL      0.008630
    167 N15         6.5690   -0.6040    1.8210 n         1 MOL     -0.231788
    168 C54         7.5750   -0.5750    2.8960 c3        1 MOL     -0.215650
    169 H78         7.4420    0.3270    3.4930 h1        1 MOL      0.099735
    170 H79         7.4540   -1.4510    3.5320 h1        1 MOL      0.099735
    171 H80         8.5730   -0.5770    2.4590 h1        1 MOL      0.099735
    172 H81         6.3950   -1.4590    1.3190 hn        1 MOL      0.158664
    173 Ca1        -1.3120    0.2770   -1.3800 Ca        1 MOL      1.755731
    174 O23        -1.2040    0.1500   -4.0500 oh        1 MOL     -0.818969
    175 H82        -0.7530   -0.3310   -4.7440 ho        1 MOL      0.405153
    176 H83        -1.6670    0.8570   -4.5140 ho        1 MOL      0.405153
    177 O24        -1.1500   -2.6080   -2.6840 oh        1 MOL     -0.818969
    178 H84        -0.7030   -2.4460   -3.5110 ho        1 MOL      0.405153
    179 H85        -1.0250   -3.5390   -2.5150 ho        1 MOL      0.405153
@<TRIPOS>BOND
     1    1    2 1   
     2    1    4 1   
     3    1    5 1   
     4    1    6 1   
     5    2    3 2   
     6    2    7 1   
     7    7    8 1   
     8    7   15 1   
     9    8    9 1   
    10    8   11 1   
    11    8   16 1   
    12    9   10 2   
    13    9   19 1   
    14   11   12 1   
    15   11   17 1   
    16   11   18 1   
    17   12   13 1   
    18   12   14 1   
    19   19   20 1   
    20   19   28 1   
    21   20   21 1   
    22   20   23 1   
    23   20   29 1   
    24   21   22 2   
    25   21   41 1   
    26   23   24 1   
    27   23   30 1   
    28   23   31 1   
    29   24   25 1   
    30   24   32 1   
    31   24   33 1   
    32   25   26 1   
    33   25   34 1   
    34   25   35 1   
    35   26   27 1   
    36   26   36 1   
    37   26   37 1   
    38   27   38 1   
    39   27   39 1   
    40   27   40 1   
    41   41   42 1   
    42   41   49 1   
    43   42   43 1   
    44   42   45 1   
    45   42   50 1   
    46   43   44 2   
    47   43   53 1   
    48   45   46 1   
    49   45   51 1   
    50   45   52 1   
    51   46   47 1   
    52   46   48 1   
    53   53   54 1   
    54   53   57 1   
    55   54   55 1   
    56   54   58 1   
    57   54   59 1   
    58   55   56 2   
    59   55   60 1   
    60   60   61 1   
    61   60   68 1   
    62   61   62 1   
    63   61   64 1   
    64   61   69 1   
    65   62   63 2   
    66   62   74 1   
    67   64   65 1   
    68   64   70 1   
    69   64   71 1   
    70   65   66 1   
    71   65   67 2   
    72   66   72 1   
    73   66   73 1   
    74   74   75 1   
    75   74   78 1   
    76   75   76 1   
    77   75   79 1   
    78   75   80 1   
    79   76   77 2   
    80   76   81 1   
    81   81   82 1   
    82   81   93 1   
    83   82   83 1   
    84   82   85 1   
    85   82   94 1   
    86   83   84 2   
    87   83  102 1   
    88   85   86 1   
    89   85   95 1   
    90   85   96 1   
    91   86   87 ar  
    92   86   88 ar  
    93   87   89 ar  
    94   87   97 1   
    95   88   90 ar  
    96   88   98 1   
    97   89   91 ar  
    98   89   99 1   
    99   90   91 ar  
   100   90  100 1   
   101   91   92 1   
   102   92  101 1   
   103  102  103 1   
   104  102  110 1   
   105  103  104 1   
   106  103  106 1   
   107  103  111 1   
   108  104  105 2   
   109  104  121 1   
   110  106  107 1   
   111  106  108 1   
   112  106  112 1   
   113  107  109 1   
   114  107  113 1   
   115  107  114 1   
   116  108  115 1   
   117  108  116 1   
   118  108  117 1   
   119  109  118 1   
   120  109  119 1   
   121  109  120 1   
   122  121  122 1   
   123  121  127 1   
   124  122  123 1   
   125  122  125 1   
   126  122  128 1   
   127  123  124 2   
   128  123  132 1   
   129  125  126 1   
   130  125  129 1   
   131  125  130 1   
   132  126  131 1   
   133  132  133 1   
   134  132  137 1   
   135  133  134 1   
   136  133  136 1   
   137  133  138 1   
   138  134  135 2   
   139  134  142 1   
   140  136  139 1   
   141  136  140 1   
   142  136  141 1   
   143  142  143 1   
   144  142  147 1   
   145  143  144 1   
   146  143  146 1   
   147  143  148 1   
   148  144  145 2   
   149  144  152 1   
   150  146  149 1   
   151  146  150 1   
   152  146  151 1   
   153  152  153 1   
   154  152  161 1   
   155  153  154 1   
   156  153  156 1   
   157  153  162 1   
   158  154  155 2   
   159  154  167 1   
   160  156  157 1   
   161  156  163 1   
   162  156  164 1   
   163  157  158 1   
   164  157  165 1   
   165  157  166 1   
   166  158  159 1   
   167  158  160 1   
   168  167  168 1   
   169  167  172 1   
   170  168  169 1   
   171  168  170 1   
   172  168  171 1   
   173  174  175 1   
   174  174  176 1   
   175  177  178 1   
   176  177  179 1   
@<TRIPOS>SUBSTRUCTURE
     1 MOL         1 TEMP              0 ****  ****    0 ROOT
