@<TRIPOS>MOLECULE
MOL
  189   185     1     0     0
SMALL
resp


@<TRIPOS>ATOM
      1 C1         -0.6520    1.5040    6.1600 c3        1 MOL     -0.323038
      2 C2         -0.7650    1.2800    4.6520 c         1 MOL      0.812560
      3 O1          0.1800    1.5760    3.9530 o         1 MOL     -0.662561
      4 H1         -0.6400    0.5400    6.6690 hc        1 MOL      0.074572
      5 H2          0.2690    2.0430    6.3800 hc        1 MOL      0.074572
      6 H3         -1.5060    2.0860    6.5060 hc        1 MOL      0.074572
      7 N1         -1.8290    0.6680    4.1770 n         1 MOL     -0.654159
      8 C3         -2.3830    0.9440    2.8090 c3        1 MOL      0.182175
      9 C4         -2.6650    2.4410    2.5540 c         1 MOL      0.383203
     10 O2         -3.5820    3.0230    3.1270 o         1 MOL     -0.522371
     11 C5         -3.8090    0.2940    2.7670 c3        1 MOL     -0.188038
     12 C6         -4.4100    0.4280    1.3990 c         1 MOL      0.958050
     13 O3         -5.6390    0.3420    1.2260 o         1 MOL     -0.759880
     14 O4         -3.5020    0.4840    0.5140 o         1 MOL     -0.759880
     15 H4         -2.4440    0.3900    4.9320 hn        1 MOL      0.317274
     16 H5         -1.6680    0.6150    2.0650 h1        1 MOL      0.037383
     17 H6         -4.5260    0.7120    3.4720 hc        1 MOL      0.033032
     18 H7         -3.7790   -0.7580    3.0460 hc        1 MOL      0.033032
     19 N2         -1.7910    3.0410    1.7380 n         1 MOL     -0.094841
     20 C7         -1.6840    4.5140    1.5600 c3        1 MOL     -0.343628
     21 C8         -2.7780    5.1150    0.6510 c         1 MOL      0.629779
     22 O5         -3.1040    6.2610    0.8800 o         1 MOL     -0.595952
     23 C9         -0.1940    4.7780    1.0860 c3        1 MOL     -0.234946
     24 C10         0.1510    6.2760    1.1260 c3        1 MOL      0.137411
     25 C11         1.6230    6.5010    0.9340 c3        1 MOL     -0.327452
     26 C12         2.1460    7.7230    1.7300 c3        1 MOL      0.105464
     27 N3          2.6200    7.4220    3.0950 n4        1 MOL     -0.509200
     28 H8         -1.1720    2.4340    1.2330 hn        1 MOL      0.205725
     29 H9         -1.9020    4.9770    2.5140 h1        1 MOL      0.139662
     30 H10         0.0120    4.4000    0.0800 hc        1 MOL      0.135239
     31 H11         0.3670    4.1120    1.7320 hc        1 MOL      0.135239
     32 H12        -0.1250    6.7190    2.0830 hc        1 MOL      0.037158
     33 H13        -0.4080    6.8570    0.3800 hc        1 MOL      0.037158
     34 H14         1.7370    6.5690   -0.1500 hc        1 MOL      0.117117
     35 H15         2.2340    5.6500    1.2390 hc        1 MOL      0.117117
     36 H16         1.3610    8.4600    1.8660 hx        1 MOL      0.083863
     37 H17         2.8260    8.3330    1.1310 hx        1 MOL      0.083863
     38 H18         2.5210    8.2090    3.7240 hn        1 MOL      0.368733
     39 H19         2.0340    6.6870    3.4640 hn        1 MOL      0.368733
     40 H20         3.5400    7.0080    3.1270 hn        1 MOL      0.368733
     41 N4         -3.2150    4.3260   -0.3270 n         1 MOL     -0.203455
     42 C13        -4.1400    4.6970   -1.3960 c3        1 MOL     -0.151001
     43 C14        -5.5500    4.1140   -1.4250 c         1 MOL      0.483114
     44 O6         -6.4910    4.7260   -1.9890 o         1 MOL     -0.542464
     45 C15        -3.4870    4.4590   -2.8070 c3        1 MOL     -0.282910
     46 C16        -2.7830    3.1400   -3.0800 c         1 MOL      0.815142
     47 O7         -2.7370    2.1980   -2.2530 o         1 MOL     -0.675442
     48 O8         -2.0200    3.0730   -4.0540 o         1 MOL     -0.675442
     49 H21        -2.9510    3.3520   -0.3900 hn        1 MOL      0.143569
     50 H22        -4.2100    5.7780   -1.4830 h1        1 MOL      0.125455
     51 H23        -2.7450    5.2430   -2.9140 hc        1 MOL      0.096227
     52 H24        -4.3010    4.5580   -3.5270 hc        1 MOL      0.096227
     53 N5         -5.7660    2.9740   -0.7350 n         1 MOL     -0.049411
     54 C17        -7.1190    2.4470   -0.6180 c3        1 MOL     -0.248512
     55 C18        -7.3370    1.3430   -1.6640 c         1 MOL      0.682195
     56 O9         -7.8020    1.6240   -2.7560 o         1 MOL     -0.547870
     57 H25        -5.0330    2.5050   -0.2050 hn        1 MOL      0.070454
     58 H26        -7.9670    3.1290   -0.6610 h1        1 MOL      0.100214
     59 H27        -7.2450    2.1020    0.4030 h1        1 MOL      0.100214
     60 N6         -7.0240    0.1150   -1.2700 n         1 MOL     -0.564493
     61 C19        -7.2610   -1.0830   -2.0610 c3        1 MOL     -0.029415
     62 C20        -7.1450   -2.3310   -1.1070 c         1 MOL      0.475697
     63 O10        -7.4730   -3.4230   -1.5560 o         1 MOL     -0.554512
     64 C21        -6.1860   -1.1980   -3.1200 c3        1 MOL      0.021851
     65 C22        -4.6410   -1.1100   -2.7410 c         1 MOL      0.555830
     66 O11        -3.9140   -0.2890   -3.3520 o         1 MOL     -0.680867
     67 O12        -4.2500   -1.8800   -1.8100 o         1 MOL     -0.680867
     68 H28        -6.5890    0.0230   -0.3620 hn        1 MOL      0.275713
     69 H29        -8.2310   -1.0270   -2.5610 h1        1 MOL      0.104561
     70 H30        -6.4980   -0.6090   -3.9820 hc        1 MOL      0.019474
     71 H31        -6.2870   -2.2150   -3.4870 hc        1 MOL      0.019474
     72 N7         -6.7870   -2.1860    0.1310 n         1 MOL     -0.240042
     73 C23        -6.7910   -3.2860    1.1030 c3        1 MOL     -0.193085
     74 C24        -5.5860   -4.2270    1.0180 c         1 MOL      0.443697
     75 O13        -5.7090   -5.4120    1.2470 o         1 MOL     -0.535663
     76 H32        -6.5490   -1.2930    0.5550 hn        1 MOL      0.266692
     77 H33        -7.6210   -3.8710    0.7190 h1        1 MOL      0.115428
     78 H34        -7.1580   -3.0510    2.0950 h1        1 MOL      0.115428
     79 N8         -4.4500   -3.7020    0.7270 n         1 MOL     -0.032333
     80 C25        -3.2330   -4.4750    0.4920 c3        1 MOL     -0.487256
     81 C26        -1.9840   -3.4920    0.7120 c         1 MOL      0.617344
     82 O14        -2.0230   -2.2440    0.3400 o         1 MOL     -0.558805
     83 C27        -3.1870   -5.1370   -0.8780 c3        1 MOL      0.517952
     84 C28        -4.3550   -6.0780   -1.3020 c3        1 MOL     -0.717377
     85 O15        -3.0430   -4.1750   -1.9130 oh        1 MOL     -0.700053
     86 H35        -4.4200   -2.7020    0.5940 hn        1 MOL      0.103634
     87 H36        -3.2270   -5.2400    1.2670 h1        1 MOL      0.153397
     88 H37        -2.2720   -5.7220   -0.9080 h1        1 MOL      0.004033
     89 H38        -3.5330   -3.3950   -1.6480 ho        1 MOL      0.471944
     90 H39        -3.9990   -6.5810   -2.1960 hc        1 MOL      0.202593
     91 H40        -4.6740   -6.8390   -0.5850 hc        1 MOL      0.202593
     92 H41        -5.2500   -5.4720   -1.3780 hc        1 MOL      0.202593
     93 N9         -0.8500   -4.1530    1.1430 n         1 MOL     -0.423463
     94 C29         0.4250   -3.4970    1.3880 c3        1 MOL      0.027356
     95 C30         1.5140   -3.8120    0.3680 c         1 MOL      0.323412
     96 O16         1.8520   -5.0100    0.2550 o         1 MOL     -0.517278
     97 C31         0.9580   -3.8010    2.8510 c3        1 MOL     -0.017621
     98 C32        -0.0040   -3.3070    3.9620 c3        1 MOL      0.061206
     99 C33         2.4700   -3.4390    3.0810 c3        1 MOL     -0.344103
    100 C34         0.2700   -3.7690    5.4180 c3        1 MOL     -0.093317
    101 H42        -0.9980   -5.0940    1.4920 hn        1 MOL      0.288303
    102 H43         0.2160   -2.4220    1.3120 h1        1 MOL      0.047852
    103 H44         0.9390   -4.8850    2.9720 hc        1 MOL      0.038659
    104 H45        -1.0620   -3.3800    3.7030 hc        1 MOL      0.010009
    105 H46         0.0880   -2.2270    4.0580 hc        1 MOL      0.010009
    106 H47         3.0200   -3.9440    2.2930 hc        1 MOL      0.094005
    107 H48         2.5850   -2.3610    3.2350 hc        1 MOL      0.094005
    108 H49         2.7900   -3.9230    4.0080 hc        1 MOL      0.094005
    109 H50         1.3200   -3.6560    5.6560 hc        1 MOL      0.019521
    110 H51        -0.3200   -3.2400    6.1620 hc        1 MOL      0.019521
    111 H52        -0.0370   -4.8170    5.4240 hc        1 MOL      0.019521
    112 N10         2.0510   -2.8360   -0.3880 n         1 MOL     -0.086105
    113 C35         3.2160   -3.0250   -1.2580 c3        1 MOL      0.017432
    114 C36         4.5400   -2.9620   -0.6030 c         1 MOL      0.262427
    115 O17         4.6120   -2.9770    0.5900 o         1 MOL     -0.262404
    116 C37         3.1450   -2.0870   -2.5290 c3        1 MOL      0.147523
    117 C38         1.7970   -1.9800   -3.2870 c3        1 MOL     -0.213435
    118 O18         3.4700   -0.7820   -2.1020 oh        1 MOL     -0.478528
    119 H53         1.5390   -1.9670   -0.3990 hn        1 MOL      0.384031
    120 H54         3.0850   -3.9880   -1.7650 h1        1 MOL      0.067937
    121 H55         3.9210   -2.3940   -3.2200 h1        1 MOL     -0.007487
    122 H56         3.5830   -0.1830   -2.8480 ho        1 MOL      0.354041
    123 H57         1.8420   -1.2100   -4.0500 hc        1 MOL      0.036898
    124 H58         1.7380   -2.9260   -3.8260 hc        1 MOL      0.036898
    125 H59         1.0380   -1.8870   -2.5170 hc        1 MOL      0.036898
    126 N11         5.6140   -2.9400   -1.3990 n         1 MOL     -0.232875
    127 C39         7.0130   -2.8080   -0.9310 c3        1 MOL     -0.161355
    128 C40         7.2600   -1.4980   -0.1580 c         1 MOL      0.415086
    129 O19         7.5870   -1.4650    1.0190 o         1 MOL     -0.446787
    130 C41         8.0350   -2.8560   -2.0890 c3        1 MOL      0.252321
    131 C42         8.3360   -4.2550   -2.6960 c3        1 MOL     -0.375001
    132 O20         7.5610   -2.1020   -3.2020 oh        1 MOL     -0.632693
    133 H60         5.5520   -3.1020   -2.3980 hn        1 MOL      0.255435
    134 H61         7.1640   -3.7260   -0.3620 h1        1 MOL      0.156352
    135 H62         8.9960   -2.4320   -1.8200 h1        1 MOL      0.055205
    136 H63         8.2560   -2.1850   -3.8660 ho        1 MOL      0.412794
    137 H64         7.4790   -4.6920   -3.2130 hc        1 MOL      0.110465
    138 H65         9.1140   -4.1500   -3.4560 hc        1 MOL      0.110465
    139 H66         8.6490   -4.9590   -1.9110 hc        1 MOL      0.110465
    140 N12         7.0140   -0.3190   -0.8290 n         1 MOL     -0.369835
    141 C43         7.0410    1.1320   -0.2320 c3        1 MOL      0.110301
    142 C44         6.1200    1.3140    0.9760 c         1 MOL      0.394707
    143 O21         6.5720    1.8540    1.9800 o         1 MOL     -0.500816
    144 C45         6.7870    2.2240   -1.2410 c3        1 MOL     -0.512304
    145 C46         7.9840    2.3090   -2.2040 c3        1 MOL      0.493320
    146 C47         7.5990    3.2620   -3.3560 c3        1 MOL     -0.225866
    147 C48         8.6910    3.3160   -4.4470 c3        1 MOL      0.046853
    148 N13         9.9620    3.7760   -3.9420 n4        1 MOL     -0.125636
    149 H67         6.6500   -0.3360   -1.7760 hn        1 MOL      0.222297
    150 H68         8.0780    1.3110    0.0760 h1        1 MOL      0.075512
    151 H69         6.7790    3.2030   -0.7590 hc        1 MOL      0.133149
    152 H70         5.8700    1.9530   -1.7630 hc        1 MOL      0.133149
    153 H71         8.3650    1.3520   -2.5460 hc        1 MOL     -0.088645
    154 H72         8.8580    2.7250   -1.7010 hc        1 MOL     -0.088645
    155 H73         7.4160    4.2880   -3.0260 hc        1 MOL      0.079834
    156 H74         6.6960    2.8370   -3.8160 hc        1 MOL      0.079834
    157 H75         8.4860    4.0240   -5.2500 hx        1 MOL      0.061905
    158 H76         8.8820    2.3370   -4.8890 hx        1 MOL      0.061905
    159 H77        10.5760    3.9570   -4.7250 hn        1 MOL      0.208097
    160 H78         9.8330    4.6730   -3.4890 hn        1 MOL      0.208097
    161 H79        10.4780    3.1480   -3.3460 hn        1 MOL      0.208097
    162 N14         4.9470    0.6200    0.9010 n         1 MOL     -0.163231
    163 C49         3.9970    0.5150    2.0820 c3        1 MOL     -0.151458
    164 C50         4.4630   -0.3740    3.2180 c         1 MOL      0.495362
    165 O22         4.3490   -0.0170    4.3540 o         1 MOL     -0.551688
    166 C51         2.6050    0.1000    1.5530 c3        1 MOL      0.282581
    167 C52         2.0880    1.0510    0.5210 c3        1 MOL     -0.483205
    168 C53         0.7060    0.6470    0.0180 c         1 MOL      0.853310
    169 O23        -0.1850    1.5110   -0.1190 o         1 MOL     -0.762756
    170 O24         0.4320   -0.5020   -0.3290 o         1 MOL     -0.762756
    171 H80         4.8120    0.0620    0.0670 hn        1 MOL      0.175437
    172 H81         3.9490    1.5120    2.5070 h1        1 MOL      0.100717
    173 H82         1.9110    0.0450    2.3990 hc        1 MOL      0.005952
    174 H83         2.6850   -0.8390    1.0030 hc        1 MOL      0.005952
    175 H84         2.8310    1.2050   -0.2640 hc        1 MOL      0.055433
    176 H85         2.0070    2.0040    1.0320 hc        1 MOL      0.055433
    177 N15         5.1610   -1.5060    2.9670 n         1 MOL     -0.019516
    178 C54         5.7900   -2.3040    4.0800 c3        1 MOL     -0.363853
    179 H86         5.0130   -2.8360    4.6290 h1        1 MOL      0.126774
    180 H87         6.4940   -3.0210    3.6600 h1        1 MOL      0.126774
    181 H88         6.3160   -1.6310    4.7570 h1        1 MOL      0.126774
    182 H89         5.1390   -1.8810    2.0310 hn        1 MOL      0.037321
    183 Ca1        -1.9980   -0.1000   -1.4580 Ca        1 MOL      1.737844
    184 O25        -1.3710   -2.2350   -3.1090 oh        1 MOL     -0.727370
    185 H90        -1.6510   -3.0690   -2.7360 ho        1 MOL      0.379422
    186 H91        -1.2980   -2.4060   -4.0390 ho        1 MOL      0.379422
    187 O26        -0.3750    0.3640   -3.5070 oh        1 MOL     -0.727370
    188 H92        -0.5790    0.0750   -4.3930 ho        1 MOL      0.379422
    189 H93         0.2940    1.0330   -3.6110 ho        1 MOL      0.379422
@<TRIPOS>BOND
     1    1    2 1   
     2    1    4 1   
     3    1    5 1   
     4    1    6 1   
     5    2    3 2   
     6    2    7 1   
     7    7    8 1   
     8    7   15 1   
     9    8    9 1   
    10    8   11 1   
    11    8   16 1   
    12    9   10 2   
    13    9   19 1   
    14   11   12 1   
    15   11   17 1   
    16   11   18 1   
    17   12   13 1   
    18   12   14 1   
    19   19   20 1   
    20   19   28 1   
    21   20   21 1   
    22   20   23 1   
    23   20   29 1   
    24   21   22 2   
    25   21   41 1   
    26   23   24 1   
    27   23   30 1   
    28   23   31 1   
    29   24   25 1   
    30   24   32 1   
    31   24   33 1   
    32   25   26 1   
    33   25   34 1   
    34   25   35 1   
    35   26   27 1   
    36   26   36 1   
    37   26   37 1   
    38   27   38 1   
    39   27   39 1   
    40   27   40 1   
    41   41   42 1   
    42   41   49 1   
    43   42   43 1   
    44   42   45 1   
    45   42   50 1   
    46   43   44 2   
    47   43   53 1   
    48   45   46 1   
    49   45   51 1   
    50   45   52 1   
    51   46   47 1   
    52   46   48 1   
    53   53   54 1   
    54   53   57 1   
    55   54   55 1   
    56   54   58 1   
    57   54   59 1   
    58   55   56 2   
    59   55   60 1   
    60   60   61 1   
    61   60   68 1   
    62   61   62 1   
    63   61   64 1   
    64   61   69 1   
    65   62   63 2   
    66   62   72 1   
    67   64   65 1   
    68   64   70 1   
    69   64   71 1   
    70   65   66 1   
    71   65   67 1   
    72   72   73 1   
    73   72   76 1   
    74   73   74 1   
    75   73   77 1   
    76   73   78 1   
    77   74   75 2   
    78   74   79 1   
    79   79   80 1   
    80   79   86 1   
    81   80   81 1   
    82   80   83 1   
    83   80   87 1   
    84   81   82 2   
    85   81   93 1   
    86   83   84 1   
    87   83   85 1   
    88   83   88 1   
    89   84   90 1   
    90   84   91 1   
    91   84   92 1   
    92   85   89 1   
    93   93   94 1   
    94   93  101 1   
    95   94   95 1   
    96   94   97 1   
    97   94  102 1   
    98   95   96 2   
    99   95  112 1   
   100   97   98 1   
   101   97   99 1   
   102   97  103 1   
   103   98  100 1   
   104   98  104 1   
   105   98  105 1   
   106   99  106 1   
   107   99  107 1   
   108   99  108 1   
   109  100  109 1   
   110  100  110 1   
   111  100  111 1   
   112  112  113 1   
   113  112  119 1   
   114  113  114 1   
   115  113  116 1   
   116  113  120 1   
   117  114  115 2   
   118  114  126 1   
   119  116  117 1   
   120  116  118 1   
   121  116  121 1   
   122  117  123 1   
   123  117  124 1   
   124  117  125 1   
   125  118  122 1   
   126  126  127 1   
   127  126  133 1   
   128  127  128 1   
   129  127  130 1   
   130  127  134 1   
   131  128  129 2   
   132  128  140 1   
   133  130  131 1   
   134  130  132 1   
   135  130  135 1   
   136  131  137 1   
   137  131  138 1   
   138  131  139 1   
   139  132  136 1   
   140  140  141 1   
   141  140  149 1   
   142  141  142 1   
   143  141  144 1   
   144  141  150 1   
   145  142  143 2   
   146  142  162 1   
   147  144  145 1   
   148  144  151 1   
   149  144  152 1   
   150  145  146 1   
   151  145  153 1   
   152  145  154 1   
   153  146  147 1   
   154  146  155 1   
   155  146  156 1   
   156  147  148 1   
   157  147  157 1   
   158  147  158 1   
   159  148  159 1   
   160  148  160 1   
   161  148  161 1   
   162  162  163 1   
   163  162  171 1   
   164  163  164 1   
   165  163  166 1   
   166  163  172 1   
   167  164  165 2   
   168  164  177 1   
   169  166  167 1   
   170  166  173 1   
   171  166  174 1   
   172  167  168 1   
   173  167  175 1   
   174  167  176 1   
   175  168  169 1   
   176  168  170 1   
   177  177  178 1   
   178  177  182 1   
   179  178  179 1   
   180  178  180 1   
   181  178  181 1   
   182  184  185 1   
   183  184  186 1   
   184  187  188 1   
   185  187  189 1   
@<TRIPOS>SUBSTRUCTURE
     1 MOL         1 TEMP              0 ****  ****    0 ROOT
