@<TRIPOS>MOLECULE
MOL
  183   181     1     0     0
SMALL
resp


@<TRIPOS>ATOM
      1 C1         -1.2450    2.2840    6.3790 c3        1 MOL     -0.328735
      2 C2         -1.4500    2.2200    4.8330 c         1 MOL      0.759336
      3 O1         -0.5480    2.7790    4.2090 o         1 MOL     -0.562970
      4 H1         -0.8230    1.3410    6.7270 hc        1 MOL      0.072166
      5 H2         -0.5630    3.0990    6.6230 hc        1 MOL      0.072166
      6 H3         -2.2040    2.4540    6.8660 hc        1 MOL      0.072166
      7 N1         -2.4550    1.5990    4.2390 n         1 MOL     -0.836500
      8 C3         -2.7430    1.5830    2.8340 c3        1 MOL      0.562665
      9 C4         -3.0860    2.9530    2.3430 c         1 MOL      0.485577
     10 O2         -3.8610    3.6850    2.9830 o         1 MOL     -0.585254
     11 C5         -3.9120    0.5860    2.5910 c3        1 MOL     -0.339061
     12 C6         -4.5190    0.5470    1.1740 c         1 MOL      0.780869
     13 O3         -5.7460    0.3090    1.1870 o         1 MOL     -0.565040
     14 O4         -3.7240    0.5590    0.1850 o         1 MOL     -0.565040
     15 H4         -3.1380    1.2190    4.8830 hn        1 MOL      0.354644
     16 H5         -1.9220    1.2360    2.2090 h1        1 MOL     -0.045744
     17 H6         -4.6820    1.0700    3.1930 hc        1 MOL      0.026478
     18 H7         -3.7040   -0.4150    2.9550 hc        1 MOL      0.026478
     19 N2         -2.5730    3.2790    1.1510 n         1 MOL     -0.295700
     20 C7         -2.6290    4.7020    0.5850 c3        1 MOL      0.003766
     21 C8         -3.7350    4.6610   -0.4660 c         1 MOL      0.387633
     22 O5         -4.4310    5.6560   -0.5510 o         1 MOL     -0.516613
     23 C9         -1.2330    5.0770    0.0930 c3        1 MOL      0.171661
     24 C10        -0.1230    5.3640    1.2050 c3        1 MOL      0.106557
     25 C11        -1.2090    6.1510   -0.9810 c3        1 MOL     -0.243918
     26 C12        -0.1140    6.6760    1.9980 c3        1 MOL     -0.206650
     27 H8         -1.9310    2.6240    0.7310 hn        1 MOL      0.046264
     28 H9         -2.8880    5.3630    1.4060 h1        1 MOL      0.071291
     29 H10        -0.8860    4.1680   -0.4030 hc        1 MOL      0.025427
     30 H11         0.8620    5.2820    0.7400 hc        1 MOL     -0.003019
     31 H12        -0.1660    4.5530    1.9380 hc        1 MOL     -0.003019
     32 H13        -1.3790    7.1080   -0.4870 hc        1 MOL      0.050197
     33 H14        -0.2190    6.1440   -1.4340 hc        1 MOL      0.050197
     34 H15        -1.8790    5.8990   -1.8070 hc        1 MOL      0.050197
     35 H16         0.8730    6.7980    2.4430 hc        1 MOL      0.034914
     36 H17        -0.1610    7.4900    1.2720 hc        1 MOL      0.034914
     37 H18        -0.9430    6.6940    2.7120 hc        1 MOL      0.034914
     38 N3         -3.9030    3.4900   -1.1980 n         1 MOL     -0.076521
     39 C13        -4.9510    3.3280   -2.2220 c3        1 MOL     -0.252892
     40 C14        -6.4600    3.1590   -1.6540 c         1 MOL      0.516251
     41 O6         -7.4220    3.7350   -2.1680 o         1 MOL     -0.562772
     42 C15        -4.6950    2.0980   -3.0240 c3        1 MOL      0.057954
     43 C16        -3.3180    2.1500   -3.5520 c         1 MOL      0.645509
     44 O7         -3.0380    3.0040   -4.4580 o         1 MOL     -0.710851
     45 O8         -2.5010    1.3280   -3.1870 o         1 MOL     -0.710851
     46 H19        -3.3470    2.6580   -1.0280 hn        1 MOL      0.103967
     47 H20        -4.9230    4.2420   -2.8180 h1        1 MOL      0.123123
     48 H21        -5.3370    2.0320   -3.8990 hc        1 MOL      0.016232
     49 H22        -4.8020    1.1840   -2.4360 hc        1 MOL      0.016232
     50 N4         -6.5670    2.4450   -0.5380 n         1 MOL     -0.123468
     51 C17        -7.8770    1.9880    0.0170 c3        1 MOL     -0.165382
     52 C18        -8.3880    0.6980   -0.6920 c         1 MOL      0.500470
     53 O9         -9.5940    0.4370   -0.7520 o         1 MOL     -0.585366
     54 H23        -5.7930    1.8190   -0.3180 hn        1 MOL     -0.012827
     55 H24        -8.5920    2.8090   -0.0940 h1        1 MOL      0.098937
     56 H25        -7.7400    1.8250    1.0910 h1        1 MOL      0.098937
     57 N5         -7.4690   -0.2050   -1.1040 n         1 MOL     -0.072424
     58 C19        -7.6710   -1.6110   -1.5810 c3        1 MOL     -0.021505
     59 C20        -7.6120   -2.7190   -0.4840 c         1 MOL      0.442210
     60 O10        -8.1240   -3.8030   -0.7310 o         1 MOL     -0.569122
     61 C21        -6.6560   -1.9100   -2.6930 c3        1 MOL     -0.157780
     62 C22        -5.1560   -1.6700   -2.3280 c         1 MOL      0.758950
     63 O11        -4.3930   -1.1530   -3.1620 o         1 MOL     -0.746162
     64 O12        -4.7680   -1.9850   -1.1960 o         1 MOL     -0.746162
     65 H26        -6.4860   -0.0510   -0.9340 hn        1 MOL     -0.084380
     66 H27        -8.6970   -1.5840   -1.9650 h1        1 MOL      0.084408
     67 H28        -6.9650   -1.2400   -3.4980 hc        1 MOL      0.044505
     68 H29        -6.7420   -2.9200   -3.0910 hc        1 MOL      0.044505
     69 N6         -7.0390   -2.4870    0.7010 n         1 MOL     -0.162746
     70 C23        -6.9000   -3.4560    1.7750 c3        1 MOL     -0.079206
     71 C24        -5.5380   -4.1900    1.8860 c         1 MOL      0.404782
     72 O13        -5.5060   -5.2390    2.6070 o         1 MOL     -0.580242
     73 H30        -6.6570   -1.5790    0.8780 hn        1 MOL      0.160866
     74 H31        -7.6400   -4.2530    1.7440 h1        1 MOL      0.074222
     75 H32        -7.1050   -2.9860    2.7330 h1        1 MOL      0.074222
     76 N7         -4.4420   -3.8490    1.1740 n         1 MOL      0.008295
     77 C25        -3.0700   -4.2740    1.4920 c3        1 MOL     -0.061020
     78 C26        -2.0330   -3.1250    1.3890 c         1 MOL      0.290233
     79 O14        -2.4380   -2.0430    0.8600 o         1 MOL     -0.637336
     80 C27        -2.6470   -5.4640    0.5670 c3        1 MOL     -0.105124
     81 C28        -3.1150   -5.6300   -0.8420 c3        1 MOL     -0.208401
     82 C29        -2.7390   -4.5790   -1.9010 c         1 MOL      0.707856
     83 N8         -3.0470   -4.7320   -3.1660 n         1 MOL     -0.808761
     84 O15        -2.1500   -3.6000   -1.6290 o         1 MOL     -0.500557
     85 H33        -4.5800   -3.1950    0.4110 hn        1 MOL      0.202163
     86 H34        -2.9280   -4.6700    2.5020 h1        1 MOL      0.050971
     87 H35        -3.1200   -6.3080    1.0850 hc        1 MOL      0.045184
     88 H36        -1.5550   -5.4590    0.5540 hc        1 MOL      0.045184
     89 H37        -4.1990   -5.5920   -0.7080 hc        1 MOL      0.062817
     90 H38        -2.7560   -6.5640   -1.2600 hc        1 MOL      0.062817
     91 H39        -3.6830   -5.4590   -3.4660 hn        1 MOL      0.349059
     92 H40        -2.9090   -3.9960   -3.8450 hn        1 MOL      0.349059
     93 N9         -0.9320   -3.3630    2.0390 n         1 MOL      0.004510
     94 C30         0.2710   -2.4390    2.0450 c3        1 MOL      0.052806
     95 C31         1.4430   -3.1060    1.3790 c         1 MOL      0.217299
     96 O16         1.9810   -4.0940    1.8660 o         1 MOL     -0.520703
     97 C32         0.6940   -2.0460    3.4100 c3        1 MOL      0.432063
     98 C33         1.9210   -1.1830    3.5900 c3        1 MOL     -0.302760
     99 C34        -0.3690   -1.4940    4.3060 c3        1 MOL     -0.302760
    100 H41        -0.8330   -4.2170    2.5720 hn        1 MOL      0.186239
    101 H42         0.0570   -1.5060    1.5080 h1        1 MOL      0.031193
    102 H43         0.8600   -3.0190    3.8760 hc        1 MOL     -0.100157
    103 H44         2.8280   -1.5980    3.1550 hc        1 MOL      0.054826
    104 H45         1.7540   -0.1820    3.2120 hc        1 MOL      0.054826
    105 H46         2.1410   -1.0740    4.6540 hc        1 MOL      0.054826
    106 H47        -1.1730   -2.2220    4.3100 hc        1 MOL      0.054826
    107 H48         0.0290   -1.3640    5.3170 hc        1 MOL      0.054826
    108 H49        -0.7520   -0.5730    3.8640 hc        1 MOL      0.054826
    109 N10         1.8840   -2.5940    0.1660 n         1 MOL     -0.148516
    110 C35         3.1210   -3.0400   -0.5050 c3        1 MOL      0.237859
    111 C36         4.3210   -2.1880    0.0240 c         1 MOL      0.223230
    112 O17         4.0820   -1.3550    0.8940 o         1 MOL     -0.203281
    113 C37         2.8730   -2.9000   -2.0030 c3        1 MOL     -0.343836
    114 C38         3.2650   -1.5770   -2.5350 c         1 MOL      0.565998
    115 N11         2.2930   -0.6600   -2.5610 n         1 MOL     -0.644140
    116 O18         4.4260   -1.2790   -2.7800 o         1 MOL     -0.548668
    117 H50         1.3890   -1.8130   -0.2520 hn        1 MOL     -0.032042
    118 H51         3.4000   -4.0780   -0.3570 h1        1 MOL      0.046417
    119 H52         1.8050   -2.9800   -2.2040 hc        1 MOL      0.104879
    120 H53         3.3740   -3.7100   -2.5270 hc        1 MOL      0.104879
    121 H54         1.3890   -0.8980   -2.1600 hn        1 MOL      0.347266
    122 H55         2.5760    0.1820   -3.0370 hn        1 MOL      0.347266
    123 N12         5.5710   -2.4840   -0.4340 n         1 MOL     -0.397618
    124 C39         6.8500   -2.0610    0.2580 c3        1 MOL      0.043433
    125 C40         6.9410   -0.5420    0.1720 c         1 MOL      0.682936
    126 O19         7.2220    0.1410    1.1220 o         1 MOL     -0.551521
    127 C41         8.0720   -2.7310   -0.5310 c3        1 MOL     -0.166298
    128 C42         9.4140   -2.0700   -0.0220 ca        1 MOL      0.008201
    129 C43         9.8750   -2.2440    1.3260 ca        1 MOL     -0.134011
    130 C44        10.1280   -1.2560   -0.8790 ca        1 MOL     -0.134011
    131 C45        10.9930   -1.5350    1.7920 ca        1 MOL     -0.305175
    132 C46        11.2460   -0.5340   -0.3570 ca        1 MOL     -0.305175
    133 C47        11.6910   -0.6300    0.9580 ca        1 MOL      0.386868
    134 O20        12.6330    0.1800    1.4730 oh        1 MOL     -0.513076
    135 H56         5.6430   -3.1940   -1.1590 hn        1 MOL      0.263630
    136 H57         6.7540   -2.3410    1.3050 h1        1 MOL      0.060419
    137 H58         7.9620   -2.5270   -1.5920 hc        1 MOL      0.072457
    138 H59         8.0030   -3.8170   -0.3970 hc        1 MOL      0.072457
    139 H60         9.2950   -2.8270    2.0380 ha        1 MOL      0.130870
    140 H61         9.7790   -1.0690   -1.8810 ha        1 MOL      0.130870
    141 H62        11.1910   -1.5530    2.8490 ha        1 MOL      0.153865
    142 H63        11.6740    0.2300   -0.9960 ha        1 MOL      0.153865
    143 H64        13.1190    0.6720    0.8020 ho        1 MOL      0.373594
    144 N13         6.5250    0.0380   -0.9700 n         1 MOL     -0.346107
    145 C48         6.4790    1.4910   -1.2450 c3        1 MOL     -0.098225
    146 C49         5.4140    2.2340   -0.3700 c         1 MOL      0.324441
    147 O21         5.5060    3.4430   -0.1550 o         1 MOL     -0.490821
    148 C50         6.3600    1.6450   -2.7520 c3        1 MOL      0.109903
    149 C51         7.6740    1.2590   -3.4720 c3        1 MOL     -0.183463
    150 C52         7.7710    1.8050   -4.8840 c         1 MOL      0.721945
    151 O22         7.7190    0.9710   -5.7990 o         1 MOL     -0.750091
    152 O23         7.8910    3.0080   -5.1240 o         1 MOL     -0.750091
    153 H65         6.0860   -0.5160   -1.6900 hn        1 MOL      0.263193
    154 H66         7.4240    1.9440   -0.9320 h1        1 MOL      0.114604
    155 H67         6.1120    2.6470   -3.1020 hc        1 MOL      0.011612
    156 H68         5.6130    0.9270   -3.0760 hc        1 MOL      0.011612
    157 H69         7.6540    0.1750   -3.5050 hc        1 MOL      0.000701
    158 H70         8.5560    1.6180   -2.9440 hc        1 MOL      0.000701
    159 N14         4.3610    1.5090    0.1090 n         1 MOL     -0.148261
    160 C53         3.3370    2.0900    1.0570 c3        1 MOL     -0.101958
    161 C54         3.8260    1.9420    2.5150 c         1 MOL      0.518213
    162 O24         3.5910    2.8420    3.2960 o         1 MOL     -0.570057
    163 C55         1.9270    1.4220    0.9620 c3        1 MOL     -0.206313
    164 C56         1.2390    1.7060   -0.4480 c3        1 MOL      0.156843
    165 C57         0.0490    0.7350   -0.4730 c         1 MOL      0.367171
    166 O25        -1.0550    1.1080   -0.1030 o         1 MOL     -0.475772
    167 O26         0.1940   -0.4510   -0.8510 o         1 MOL     -0.475772
    168 H71         4.2420    0.5440   -0.1760 hn        1 MOL      0.104988
    169 H72         3.2970    3.1370    0.7850 h1        1 MOL      0.125121
    170 H73         1.3510    1.8650    1.7780 hc        1 MOL      0.122552
    171 H74         2.0070    0.3400    0.9370 hc        1 MOL      0.122552
    172 H75         1.8780    1.3570   -1.2560 hc        1 MOL     -0.043688
    173 H76         0.9200    2.7410   -0.5960 hc        1 MOL     -0.043688
    174 N15         4.6080    0.8970    2.8720 n         1 MOL     -0.036024
    175 C58         5.4240    0.7880    4.1140 c3        1 MOL     -0.181159
    176 H77         5.3300   -0.2190    4.5210 h1        1 MOL      0.069796
    177 H78         6.4690    0.9900    3.8810 h1        1 MOL      0.069796
    178 H79         5.0680    1.5110    4.8480 h1        1 MOL      0.069796
    179 H80         4.7320    0.1530    2.2060 hn        1 MOL      0.015325
    180 Ca1        -2.4060   -0.7410   -1.4680 Ca        1 MOL      1.641818
    181 O27        -0.8390   -1.4340   -3.4950 oh        1 MOL     -0.868928
    182 H81        -0.5910   -0.6820   -4.0380 ho        1 MOL      0.417942
    183 H82        -1.0990   -2.1080   -4.1210 ho        1 MOL      0.417942
@<TRIPOS>BOND
     1    1    2 1   
     2    1    4 1   
     3    1    5 1   
     4    1    6 1   
     5    2    3 2   
     6    2    7 1   
     7    7    8 1   
     8    7   15 1   
     9    8    9 1   
    10    8   11 1   
    11    8   16 1   
    12    9   10 2   
    13    9   19 1   
    14   11   12 1   
    15   11   17 1   
    16   11   18 1   
    17   12   13 1   
    18   12   14 1   
    19   19   20 1   
    20   19   27 1   
    21   20   21 1   
    22   20   23 1   
    23   20   28 1   
    24   21   22 2   
    25   21   38 1   
    26   23   24 1   
    27   23   25 1   
    28   23   29 1   
    29   24   26 1   
    30   24   30 1   
    31   24   31 1   
    32   25   32 1   
    33   25   33 1   
    34   25   34 1   
    35   26   35 1   
    36   26   36 1   
    37   26   37 1   
    38   38   39 1   
    39   38   46 1   
    40   39   40 1   
    41   39   42 1   
    42   39   47 1   
    43   40   41 2   
    44   40   50 1   
    45   42   43 1   
    46   42   48 1   
    47   42   49 1   
    48   43   44 1   
    49   43   45 1   
    50   50   51 1   
    51   50   54 1   
    52   51   52 1   
    53   51   55 1   
    54   51   56 1   
    55   52   53 2   
    56   52   57 1   
    57   57   58 1   
    58   57   65 1   
    59   58   59 1   
    60   58   61 1   
    61   58   66 1   
    62   59   60 2   
    63   59   69 1   
    64   61   62 1   
    65   61   67 1   
    66   61   68 1   
    67   62   63 1   
    68   62   64 1   
    69   69   70 1   
    70   69   73 1   
    71   70   71 1   
    72   70   74 1   
    73   70   75 1   
    74   71   72 2   
    75   71   76 1   
    76   76   77 1   
    77   76   85 1   
    78   77   78 1   
    79   77   80 1   
    80   77   86 1   
    81   78   79 2   
    82   78   93 1   
    83   80   81 1   
    84   80   87 1   
    85   80   88 1   
    86   81   82 1   
    87   81   89 1   
    88   81   90 1   
    89   82   83 1   
    90   82   84 2   
    91   83   91 1   
    92   83   92 1   
    93   93   94 1   
    94   93  100 1   
    95   94   95 1   
    96   94   97 1   
    97   94  101 1   
    98   95   96 2   
    99   95  109 1   
   100   97   98 1   
   101   97   99 1   
   102   97  102 1   
   103   98  103 1   
   104   98  104 1   
   105   98  105 1   
   106   99  106 1   
   107   99  107 1   
   108   99  108 1   
   109  109  110 1   
   110  109  117 1   
   111  110  111 1   
   112  110  113 1   
   113  110  118 1   
   114  111  112 2   
   115  111  123 1   
   116  113  114 1   
   117  113  119 1   
   118  113  120 1   
   119  114  115 1   
   120  114  116 2   
   121  115  121 1   
   122  115  122 1   
   123  123  124 1   
   124  123  135 1   
   125  124  125 1   
   126  124  127 1   
   127  124  136 1   
   128  125  126 2   
   129  125  144 1   
   130  127  128 1   
   131  127  137 1   
   132  127  138 1   
   133  128  129 ar  
   134  128  130 ar  
   135  129  131 ar  
   136  129  139 1   
   137  130  132 ar  
   138  130  140 1   
   139  131  133 ar  
   140  131  141 1   
   141  132  133 ar  
   142  132  142 1   
   143  133  134 1   
   144  134  143 1   
   145  144  145 1   
   146  144  153 1   
   147  145  146 1   
   148  145  148 1   
   149  145  154 1   
   150  146  147 2   
   151  146  159 1   
   152  148  149 1   
   153  148  155 1   
   154  148  156 1   
   155  149  150 1   
   156  149  157 1   
   157  149  158 1   
   158  150  151 1   
   159  150  152 1   
   160  159  160 1   
   161  159  168 1   
   162  160  161 1   
   163  160  163 1   
   164  160  169 1   
   165  161  162 2   
   166  161  174 1   
   167  163  164 1   
   168  163  170 1   
   169  163  171 1   
   170  164  165 1   
   171  164  172 1   
   172  164  173 1   
   173  165  166 1   
   174  165  167 1   
   175  174  175 1   
   176  174  179 1   
   177  175  176 1   
   178  175  177 1   
   179  175  178 1   
   180  181  182 1   
   181  181  183 1   
@<TRIPOS>SUBSTRUCTURE
     1 MOL         1 TEMP              0 ****  ****    0 ROOT
