@<TRIPOS>MOLECULE
MOL
  179   176     1     0     0
SMALL
resp


@<TRIPOS>ATOM
      1 C1         -1.1280   -1.7010    6.2450 c3        1 MOL     -0.462325
      2 C2         -1.0330   -2.0670    4.7790 c         1 MOL      0.757355
      3 O1         -1.9550   -1.7850    4.0800 o         1 MOL     -0.592553
      4 H1         -2.1350   -1.9110    6.6070 hc        1 MOL      0.112065
      5 H2         -0.4080   -2.2880    6.8140 hc        1 MOL      0.112065
      6 H3         -0.9120   -0.6400    6.3710 hc        1 MOL      0.112065
      7 N1          0.0850   -2.6040    4.3440 n         1 MOL     -0.580637
      8 C3          0.5880   -2.4840    2.9870 c3        1 MOL      0.040653
      9 C4          0.5140   -3.8810    2.2960 c         1 MOL      0.476446
     10 O2          1.0920   -4.8690    2.8110 o         1 MOL     -0.551784
     11 C5          1.9630   -1.8770    3.0400 c3        1 MOL      0.025460
     12 C6          2.5530   -1.5870    1.6880 c         1 MOL      0.887438
     13 O3          2.1020   -1.9900    0.6400 o         1 MOL     -0.786514
     14 O4          3.6450   -1.0430    1.6620 o         1 MOL     -0.786514
     15 H4          0.7270   -2.9510    5.0380 hn        1 MOL      0.316156
     16 H5          0.0690   -1.7020    2.4360 h1        1 MOL      0.021115
     17 H6          2.6850   -2.4970    3.5530 hc        1 MOL     -0.003613
     18 H7          1.9870   -0.9230    3.5700 hc        1 MOL     -0.003613
     19 N2         -0.0950   -4.0300    1.1170 n         1 MOL     -0.324416
     20 C7         -0.2510   -5.3270    0.3320 c3        1 MOL     -0.060631
     21 C8          1.0120   -5.8350   -0.3970 c         1 MOL      0.526491
     22 O5          1.2070   -6.9930   -0.6290 o         1 MOL     -0.560232
     23 C9         -1.5580   -5.2380   -0.5520 c3        1 MOL      0.103595
     24 C10        -2.8220   -4.8190    0.2260 c3        1 MOL     -0.062967
     25 C11        -4.1080   -4.9450   -0.6070 c3        1 MOL      0.023309
     26 C12        -4.3930   -6.2300   -1.4030 c3        1 MOL      0.055329
     27 N3         -5.7940   -6.2390   -1.8300 n4        1 MOL     -0.434646
     28 H8         -0.4680   -3.1740    0.7220 hn        1 MOL      0.320333
     29 H9         -0.5190   -6.0540    1.1060 h1        1 MOL      0.086335
     30 H10        -1.7030   -6.2600   -0.9150 hc        1 MOL     -0.032729
     31 H11        -1.3690   -4.5720   -1.3950 hc        1 MOL     -0.032729
     32 H12        -2.6740   -3.7890    0.5300 hc        1 MOL      0.037375
     33 H13        -2.8200   -5.4740    1.1050 hc        1 MOL      0.037375
     34 H14        -4.0740   -4.1480   -1.3460 hc        1 MOL      0.032780
     35 H15        -4.9190   -4.6840    0.0760 hc        1 MOL      0.032780
     36 H16        -4.0960   -7.0730   -0.7830 hx        1 MOL      0.078274
     37 H17        -3.7380   -6.2050   -2.2730 hx        1 MOL      0.078274
     38 H18        -6.3350   -6.3490   -0.9820 hn        1 MOL      0.351939
     39 H19        -6.0070   -5.3470   -2.2590 hn        1 MOL      0.351939
     40 H20        -5.9890   -6.9890   -2.4720 hn        1 MOL      0.351939
     41 N4          2.0080   -5.0280   -0.7000 n         1 MOL     -0.218791
     42 C13         3.0290   -5.2170   -1.6810 c3        1 MOL     -0.109352
     43 C14         4.4490   -4.7290   -1.3160 c         1 MOL      0.386217
     44 O6          5.3990   -4.9870   -2.0460 o         1 MOL     -0.486767
     45 C15         2.5880   -4.5720   -3.0330 c3        1 MOL      0.030687
     46 C16         2.2850   -3.0940   -2.8580 c         1 MOL      0.706532
     47 O7          1.0990   -2.6950   -2.6480 o         1 MOL     -0.758816
     48 O8          3.1520   -2.2090   -2.7850 o         1 MOL     -0.758816
     49 H21         1.9240   -4.0550   -0.4280 hn        1 MOL      0.128901
     50 H22         3.1780   -6.2700   -1.8970 h1        1 MOL      0.142301
     51 H23         1.7120   -5.0600   -3.4480 hc        1 MOL     -0.002106
     52 H24         3.2870   -4.7400   -3.8470 hc        1 MOL     -0.002106
     53 N5          4.5400   -4.1840   -0.0860 n         1 MOL     -0.046320
     54 C17         5.7570   -4.1820    0.6320 c3        1 MOL     -0.209729
     55 C18         6.6820   -3.0460    0.0460 c         1 MOL      0.599567
     56 O9          7.7890   -3.3850   -0.4300 o         1 MOL     -0.538040
     57 H25         3.6760   -4.2380    0.4430 hn        1 MOL      0.180709
     58 H26         6.2330   -5.1500    0.4860 h1        1 MOL      0.089848
     59 H27         5.5610   -4.1330    1.7010 h1        1 MOL      0.089848
     60 N6          6.2630   -1.7800    0.1670 n         1 MOL     -0.543163
     61 C19         6.8100   -0.6360   -0.6130 c3        1 MOL      0.143675
     62 C20         6.8680    0.6030    0.2910 c         1 MOL      0.311791
     63 O10         7.4950    1.6090   -0.1070 o         1 MOL     -0.500065
     64 C21         6.0750   -0.5360   -1.9180 c3        1 MOL     -0.126602
     65 C22         4.9290    0.5070   -1.9470 c         1 MOL      0.467265
     66 N7          5.0940    1.5870   -2.6580 n         1 MOL     -0.503381
     67 O11         3.9090    0.4390   -1.2730 o         1 MOL     -0.612298
     68 H28         5.3130   -1.6100    0.4710 hn        1 MOL      0.245199
     69 H29         7.8590   -0.8350   -0.8120 h1        1 MOL      0.096447
     70 H30         5.6490   -1.4730   -2.2620 hc        1 MOL      0.087486
     71 H31         6.7910   -0.2930   -2.7050 hc        1 MOL      0.087486
     72 H32         5.9140    1.7220   -3.2340 hn        1 MOL      0.295382
     73 H33         4.3230    2.1960   -2.8680 hn        1 MOL      0.295382
     74 N8          6.0750    0.6900    1.3010 n         1 MOL     -0.069300
     75 C23         6.0240    1.8190    2.2630 c3        1 MOL     -0.225909
     76 C24         4.9150    2.9170    1.9460 c         1 MOL      0.691007
     77 O12         4.9220    4.0400    2.4980 o         1 MOL     -0.564445
     78 H34         5.2760    0.0800    1.4250 hn        1 MOL      0.162425
     79 H35         7.0260    2.2330    2.3690 h1        1 MOL      0.115941
     80 H36         5.9010    1.4400    3.2740 h1        1 MOL      0.115941
     81 N9          3.7880    2.5590    1.2620 n         1 MOL     -0.819331
     82 C25         2.6970    3.4760    0.8910 c3        1 MOL      0.818972
     83 C26         1.3630    2.6530    0.9000 c         1 MOL      0.087292
     84 O13         1.3430    1.4390    0.6110 o         1 MOL     -0.520493
     85 C27         2.9400    4.1120   -0.4720 c3        1 MOL     -0.335443
     86 C28         4.1780    5.0670   -0.4870 ca        1 MOL      0.012641
     87 C29         5.5210    4.6750   -0.6310 ca        1 MOL     -0.100922
     88 C30         3.8790    6.4350   -0.5440 ca        1 MOL     -0.100922
     89 C31         6.5690    5.6190   -0.6460 ca        1 MOL     -0.386062
     90 C32         4.9230    7.4480   -0.6170 ca        1 MOL     -0.386062
     91 C33         6.2900    6.9780   -0.6210 ca        1 MOL      0.499315
     92 O14         7.2690    7.8900   -0.6970 oh        1 MOL     -0.495692
     93 H37         3.7210    1.6420    0.8260 hn        1 MOL      0.455419
     94 H38         2.5910    4.2990    1.5910 h1        1 MOL     -0.083117
     95 H39         2.0320    4.6810   -0.7050 hc        1 MOL      0.078911
     96 H40         3.1120    3.2990   -1.1640 hc        1 MOL      0.078911
     97 H41         5.7140    3.6130   -0.6830 ha        1 MOL      0.108506
     98 H42         2.8640    6.7850   -0.3950 ha        1 MOL      0.108506
     99 H43         7.5980    5.3070   -0.7870 ha        1 MOL      0.177011
    100 H44         4.6430    8.4880   -0.6480 ha        1 MOL      0.177011
    101 H45         6.9300    8.7620   -0.4770 ho        1 MOL      0.343705
    102 N10         0.2630    3.4240    1.0200 n         1 MOL     -0.142775
    103 C34        -1.0770    2.9080    0.8080 c3        1 MOL     -0.562679
    104 C35        -1.9840    3.9430    0.0560 c         1 MOL      0.640184
    105 O15        -2.1650    5.0420    0.5550 o         1 MOL     -0.528595
    106 C36        -1.8280    2.3280    2.0720 c3        1 MOL      0.178785
    107 C37        -1.9900    3.4180    3.1510 c3        1 MOL      0.024032
    108 C38        -1.0790    1.1590    2.6790 c3        1 MOL     -0.448422
    109 C39        -2.7890    3.1720    4.4190 c3        1 MOL     -0.270082
    110 H46         0.3750    4.3930    1.2890 hn        1 MOL      0.252353
    111 H47        -0.9320    2.0970    0.0780 h1        1 MOL      0.290619
    112 H48        -2.8420    2.0200    1.8120 hc        1 MOL     -0.008171
    113 H49        -2.5670    4.2820    2.8130 hc        1 MOL      0.031900
    114 H50        -0.9570    3.6580    3.4060 hc        1 MOL      0.031900
    115 H51        -1.0390    0.3600    1.9390 hc        1 MOL      0.162024
    116 H52        -0.0970    1.5410    2.9470 hc        1 MOL      0.162024
    117 H53        -1.6480    0.7230    3.5060 hc        1 MOL      0.162024
    118 H54        -2.5260    2.3010    5.0060 hc        1 MOL      0.068566
    119 H55        -2.6510    4.0440    5.0660 hc        1 MOL      0.068566
    120 H56        -3.8410    3.1910    4.1010 hc        1 MOL      0.068566
    121 N11        -2.6950    3.4660   -0.9740 n         1 MOL     -0.477767
    122 C40        -3.9110    4.1530   -1.4210 c3        1 MOL      0.198593
    123 C41        -5.1550    3.5910   -0.7250 c         1 MOL      0.369604
    124 O16        -5.0060    2.6030    0.0020 o         1 MOL     -0.344595
    125 C42        -4.0130    4.0070   -2.8890 c3        1 MOL     -0.032020
    126 O17        -4.2880    2.7030   -3.2800 oh        1 MOL     -0.512582
    127 H57        -2.7090    2.5000   -1.2520 hn        1 MOL      0.301007
    128 H58        -3.8050    5.1830   -1.0920 h1        1 MOL      0.042200
    129 H59        -3.0680    4.4200   -3.2520 h1        1 MOL      0.042014
    130 H60        -4.8350    4.6650   -3.1400 h1        1 MOL      0.042014
    131 H61        -4.1950    2.7700   -4.2380 ho        1 MOL      0.404848
    132 N12        -6.3520    4.0420   -1.0110 n         1 MOL     -0.339758
    133 C43        -7.6610    3.6500   -0.4570 c3        1 MOL      0.004671
    134 C44        -7.8300    2.1100   -0.6430 c         1 MOL      0.372785
    135 O18        -8.4200    1.3670    0.2280 o         1 MOL     -0.481282
    136 C45        -8.8840    4.4850   -1.0310 c3        1 MOL     -0.151845
    137 H62        -6.5140    4.8590   -1.5780 hn        1 MOL      0.261362
    138 H63        -7.6900    3.9030    0.6010 h1        1 MOL      0.095512
    139 H64        -8.8150    5.5550   -0.8720 hc        1 MOL      0.067498
    140 H65        -9.0040    4.2670   -2.0940 hc        1 MOL      0.067498
    141 H66        -9.8280    4.2000   -0.5670 hc        1 MOL      0.067498
    142 N13        -7.3810    1.6930   -1.8340 n         1 MOL     -0.285649
    143 C46        -7.5230    0.3040   -2.2960 c3        1 MOL      0.061208
    144 C47        -6.8910   -0.7600   -1.3490 c         1 MOL      0.429159
    145 O19        -7.2980   -1.9130   -1.2030 o         1 MOL     -0.568937
    146 C48        -6.7960    0.3020   -3.6540 c3        1 MOL     -0.306581
    147 H67        -6.8820    2.3200   -2.4620 hn        1 MOL      0.258187
    148 H68        -8.5190   -0.0800   -2.4650 h1        1 MOL      0.090759
    149 H69        -6.8450   -0.6610   -4.1710 hc        1 MOL      0.080930
    150 H70        -7.0960    1.1240   -4.3030 hc        1 MOL      0.080930
    151 H71        -5.7470    0.5210   -3.4780 hc        1 MOL      0.080930
    152 N14        -5.8790   -0.3050   -0.6120 n         1 MOL     -0.138751
    153 C49        -5.1080   -1.0450    0.4240 c3        1 MOL      0.067736
    154 C50        -5.6470   -0.8370    1.8400 c         1 MOL      0.476549
    155 O20        -5.8890   -1.8510    2.5620 o         1 MOL     -0.537676
    156 C51        -3.6370   -0.6620    0.3710 c3        1 MOL     -0.035727
    157 C52        -2.9740   -1.1040   -0.8660 c3        1 MOL     -0.017577
    158 C53        -1.5890   -0.6950   -0.8090 c         1 MOL      0.909763
    159 O21        -1.1490    0.2590   -1.4820 o         1 MOL     -0.839284
    160 O22        -0.6750   -1.3970   -0.2550 o         1 MOL     -0.839284
    161 H72        -5.7350    0.6990   -0.5810 hn        1 MOL      0.125753
    162 H73        -5.2920   -2.0990    0.2140 h1        1 MOL      0.013099
    163 H74        -3.0340   -1.0530    1.1860 hc        1 MOL      0.008096
    164 H75        -3.5390    0.4250    0.4590 hc        1 MOL      0.008096
    165 H76        -3.4710   -0.6240   -1.7110 hc        1 MOL     -0.049386
    166 H77        -3.1370   -2.1890   -0.8950 hc        1 MOL     -0.049386
    167 N15        -5.9680    0.3920    2.1610 n         1 MOL     -0.174012
    168 C54        -6.6620    0.6130    3.4250 c3        1 MOL     -0.271957
    169 H78        -6.9260    1.6670    3.5150 h1        1 MOL      0.112040
    170 H79        -7.5690    0.0090    3.4530 h1        1 MOL      0.112040
    171 H80        -6.0100    0.3300    4.2520 h1        1 MOL      0.112040
    172 H81        -5.6740    1.2000    1.6310 hn        1 MOL      0.201974
    173 Ca1         1.5420   -0.5070   -1.3320 Ca        1 MOL      1.745985
    174 O23         1.0550   -0.2970   -3.9930 oh        1 MOL     -0.726369
    175 H82         0.7990    0.2370   -4.7430 ho        1 MOL      0.362108
    176 H83         0.4540   -1.0520   -4.0270 ho        1 MOL      0.362108
    177 O24         1.1840    2.0360   -2.2990 oh        1 MOL     -0.726369
    178 H84         0.2350    2.1520   -2.3380 ho        1 MOL      0.362108
    179 H85         1.5200    2.6710   -2.9310 ho        1 MOL      0.362108
@<TRIPOS>BOND
     1    1    2 1   
     2    1    4 1   
     3    1    5 1   
     4    1    6 1   
     5    2    3 2   
     6    2    7 1   
     7    7    8 1   
     8    7   15 1   
     9    8    9 1   
    10    8   11 1   
    11    8   16 1   
    12    9   10 2   
    13    9   19 1   
    14   11   12 1   
    15   11   17 1   
    16   11   18 1   
    17   12   13 1   
    18   12   14 1   
    19   19   20 1   
    20   19   28 1   
    21   20   21 1   
    22   20   23 1   
    23   20   29 1   
    24   21   22 2   
    25   21   41 1   
    26   23   24 1   
    27   23   30 1   
    28   23   31 1   
    29   24   25 1   
    30   24   32 1   
    31   24   33 1   
    32   25   26 1   
    33   25   34 1   
    34   25   35 1   
    35   26   27 1   
    36   26   36 1   
    37   26   37 1   
    38   27   38 1   
    39   27   39 1   
    40   27   40 1   
    41   41   42 1   
    42   41   49 1   
    43   42   43 1   
    44   42   45 1   
    45   42   50 1   
    46   43   44 2   
    47   43   53 1   
    48   45   46 1   
    49   45   51 1   
    50   45   52 1   
    51   46   47 1   
    52   46   48 1   
    53   53   54 1   
    54   53   57 1   
    55   54   55 1   
    56   54   58 1   
    57   54   59 1   
    58   55   56 2   
    59   55   60 1   
    60   60   61 1   
    61   60   68 1   
    62   61   62 1   
    63   61   64 1   
    64   61   69 1   
    65   62   63 2   
    66   62   74 1   
    67   64   65 1   
    68   64   70 1   
    69   64   71 1   
    70   65   66 1   
    71   65   67 2   
    72   66   72 1   
    73   66   73 1   
    74   74   75 1   
    75   74   78 1   
    76   75   76 1   
    77   75   79 1   
    78   75   80 1   
    79   76   77 2   
    80   76   81 1   
    81   81   82 1   
    82   81   93 1   
    83   82   83 1   
    84   82   85 1   
    85   82   94 1   
    86   83   84 2   
    87   83  102 1   
    88   85   86 1   
    89   85   95 1   
    90   85   96 1   
    91   86   87 ar  
    92   86   88 ar  
    93   87   89 ar  
    94   87   97 1   
    95   88   90 ar  
    96   88   98 1   
    97   89   91 ar  
    98   89   99 1   
    99   90   91 ar  
   100   90  100 1   
   101   91   92 1   
   102   92  101 1   
   103  102  103 1   
   104  102  110 1   
   105  103  104 1   
   106  103  106 1   
   107  103  111 1   
   108  104  105 2   
   109  104  121 1   
   110  106  107 1   
   111  106  108 1   
   112  106  112 1   
   113  107  109 1   
   114  107  113 1   
   115  107  114 1   
   116  108  115 1   
   117  108  116 1   
   118  108  117 1   
   119  109  118 1   
   120  109  119 1   
   121  109  120 1   
   122  121  122 1   
   123  121  127 1   
   124  122  123 1   
   125  122  125 1   
   126  122  128 1   
   127  123  124 2   
   128  123  132 1   
   129  125  126 1   
   130  125  129 1   
   131  125  130 1   
   132  126  131 1   
   133  132  133 1   
   134  132  137 1   
   135  133  134 1   
   136  133  136 1   
   137  133  138 1   
   138  134  135 2   
   139  134  142 1   
   140  136  139 1   
   141  136  140 1   
   142  136  141 1   
   143  142  143 1   
   144  142  147 1   
   145  143  144 1   
   146  143  146 1   
   147  143  148 1   
   148  144  145 2   
   149  144  152 1   
   150  146  149 1   
   151  146  150 1   
   152  146  151 1   
   153  152  153 1   
   154  152  161 1   
   155  153  154 1   
   156  153  156 1   
   157  153  162 1   
   158  154  155 2   
   159  154  167 1   
   160  156  157 1   
   161  156  163 1   
   162  156  164 1   
   163  157  158 1   
   164  157  165 1   
   165  157  166 1   
   166  158  159 1   
   167  158  160 1   
   168  167  168 1   
   169  167  172 1   
   170  168  169 1   
   171  168  170 1   
   172  168  171 1   
   173  174  175 1   
   174  174  176 1   
   175  177  178 1   
   176  177  179 1   
@<TRIPOS>SUBSTRUCTURE
     1 MOL         1 TEMP              0 ****  ****    0 ROOT
