@<TRIPOS>MOLECULE
MOL
  175   173     1     0     0
SMALL
resp


@<TRIPOS>ATOM
      1 C1          0.5830    4.3200    5.2420 c3        1 MOL     -0.442067
      2 C2          0.0440    4.4410    3.8100 c         1 MOL      0.719224
      3 O1          0.7620    4.4180    2.8140 o         1 MOL     -0.571738
      4 H1          0.8330    3.2800    5.4490 hc        1 MOL      0.110675
      5 H2          1.4760    4.9360    5.3480 hc        1 MOL      0.110675
      6 H3         -0.1770    4.6570    5.9470 hc        1 MOL      0.110675
      7 N1         -1.2750    4.3470    3.7040 n         1 MOL     -0.671082
      8 C3         -1.9240    3.8430    2.4470 c3        1 MOL      0.384907
      9 C4         -2.1280    4.8570    1.3420 c         1 MOL      0.564299
     10 O2         -2.7290    5.9060    1.6690 o         1 MOL     -0.594969
     11 C5         -3.3140    3.3050    2.9090 c3        1 MOL     -0.588697
     12 C6         -4.0610    2.4670    1.8270 c         1 MOL      0.989084
     13 O3         -5.1380    1.9050    2.0940 o         1 MOL     -0.731883
     14 O4         -3.5460    2.2230    0.7130 o         1 MOL     -0.731883
     15 H4         -1.8330    4.1600    4.5260 hn        1 MOL      0.335552
     16 H5         -1.2690    3.0330    2.1170 h1        1 MOL      0.050651
     17 H6         -3.9050    4.1520    3.2700 hc        1 MOL      0.115454
     18 H7         -3.1200    2.5420    3.6520 hc        1 MOL      0.115454
     19 N2         -1.7330    4.5690    0.0920 n         1 MOL     -0.604835
     20 C7         -1.9810    5.3660   -1.0790 c3        1 MOL      0.502138
     21 C8         -3.2210    4.9480   -1.8930 c         1 MOL      0.355026
     22 O5         -3.7130    5.7740   -2.6340 o         1 MOL     -0.576321
     23 C9         -0.6900    5.1620   -1.9060 c3        1 MOL     -0.334139
     24 H8         -1.2780    3.6820   -0.0580 hn        1 MOL      0.265141
     25 H9         -2.1420    6.4330   -0.9610 h1        1 MOL     -0.036400
     26 H10        -0.6530    4.1290   -2.2390 hc        1 MOL      0.077811
     27 H11        -0.7340    5.8500   -2.7460 hc        1 MOL      0.077811
     28 H12         0.1490    5.4400   -1.2660 hc        1 MOL      0.077811
     29 N3         -3.7140    3.7110   -1.8480 n         1 MOL     -0.219628
     30 C10        -4.6520    3.1440   -2.8410 c3        1 MOL      0.087616
     31 C11        -5.9130    2.4060   -2.2770 c         1 MOL      0.378282
     32 O6         -6.7500    1.9060   -2.9750 o         1 MOL     -0.569742
     33 C12        -3.9340    2.2550   -3.9060 c3        1 MOL     -0.130071
     34 C13        -3.0770    1.1460   -3.3530 c         1 MOL      0.662392
     35 O7         -2.1170    0.8430   -4.0760 o         1 MOL     -0.653472
     36 O8         -3.3050    0.6700   -2.1890 o         1 MOL     -0.653472
     37 H13        -3.4470    3.2040   -1.0060 hn        1 MOL      0.139493
     38 H14        -5.2360    3.9270   -3.3100 h1        1 MOL      0.063065
     39 H15        -3.3930    2.9980   -4.5040 hc        1 MOL      0.025400
     40 H16        -4.7000    1.8380   -4.5450 hc        1 MOL      0.025400
     41 N4         -6.0030    2.1670   -1.0400 n         1 MOL     -0.131234
     42 C14        -7.1560    1.4170   -0.4770 c3        1 MOL     -0.121080
     43 C15        -7.3260   -0.0370   -1.0220 c         1 MOL      0.422022
     44 O9         -8.3920   -0.6610   -0.9160 o         1 MOL     -0.598312
     45 H17        -5.3580    2.5670   -0.3710 hn        1 MOL      0.108740
     46 H18        -8.0170    2.0820   -0.5580 h1        1 MOL      0.091368
     47 H19        -7.0200    1.2640    0.5930 h1        1 MOL      0.091368
     48 N5         -6.2350   -0.6800   -1.4330 n         1 MOL     -0.037229
     49 C16        -6.3720   -2.0040   -2.0550 c3        1 MOL     -0.019858
     50 C17        -6.5030   -3.1810   -1.0760 c         1 MOL      0.375210
     51 O10        -6.7100   -4.3240   -1.4970 o         1 MOL     -0.545946
     52 C18        -5.1920   -2.1880   -3.0350 c3        1 MOL     -0.206152
     53 C19        -3.8230   -2.4080   -2.3730 c         1 MOL      0.710737
     54 N6         -2.9800   -3.0970   -3.0690 n         1 MOL     -0.625968
     55 O11        -3.5170   -1.9500   -1.2360 o         1 MOL     -0.727730
     56 H20        -5.3930   -0.1370   -1.5920 hn        1 MOL      0.166690
     57 H21        -7.2990   -1.9700   -2.6360 h1        1 MOL      0.106041
     58 H22        -5.1780   -1.3140   -3.6870 hc        1 MOL      0.059176
     59 H23        -5.4470   -3.0580   -3.6430 hc        1 MOL      0.059176
     60 H24        -3.1290   -3.4950   -3.9830 hn        1 MOL      0.332307
     61 H25        -2.0540   -3.1890   -2.6760 hn        1 MOL      0.332307
     62 N7         -6.2200   -2.9900    0.2220 n         1 MOL     -0.047216
     63 C20        -6.3000   -3.9680    1.3440 c3        1 MOL     -0.302325
     64 C21        -4.9390   -4.5020    1.7500 c         1 MOL      0.596925
     65 O12        -4.9150   -5.4520    2.5320 o         1 MOL     -0.582480
     66 H26        -6.1900   -1.9940    0.3270 hn        1 MOL      0.117654
     67 H27        -6.8360   -4.8180    0.9420 h1        1 MOL      0.134339
     68 H28        -6.8330   -3.6280    2.2400 h1        1 MOL      0.134339
     69 N8         -3.7750   -3.9360    1.3090 n         1 MOL     -0.398133
     70 C22        -2.3810   -4.4550    1.5230 c3        1 MOL      0.001327
     71 C23        -1.4120   -3.2970    1.7610 c         1 MOL      0.344348
     72 O13        -1.5990   -2.2570    1.2280 o         1 MOL     -0.422060
     73 C24        -1.7750   -5.2590    0.3570 c3        1 MOL      0.469174
     74 C25        -2.6000   -6.5670    0.1200 c3        1 MOL     -0.435998
     75 O14        -1.7900   -4.6430   -0.8850 oh        1 MOL     -0.589020
     76 H29        -3.8510   -3.2360    0.5820 hn        1 MOL      0.295597
     77 H30        -2.3710   -5.1640    2.3550 h1        1 MOL      0.053013
     78 H31        -0.7780   -5.5970    0.6290 h1        1 MOL     -0.026181
     79 H32        -1.3190   -3.8130   -0.8180 ho        1 MOL      0.345415
     80 H33        -2.6890   -7.1000    1.0640 hc        1 MOL      0.106094
     81 H34        -3.6120   -6.2860   -0.1760 hc        1 MOL      0.106094
     82 H35        -2.0720   -7.2630   -0.5330 hc        1 MOL      0.106094
     83 N9         -0.3470   -3.5670    2.4770 n         1 MOL     -0.356477
     84 C26         0.8280   -2.6970    2.4750 c3        1 MOL     -0.076616
     85 C27         1.6410   -3.0330    1.2230 c         1 MOL      0.349488
     86 O15         2.2200   -4.1560    1.1110 o         1 MOL     -0.556957
     87 C28         1.6490   -2.6750    3.7780 c3        1 MOL      0.202667
     88 C29         0.7970   -2.2230    5.0000 c3        1 MOL      0.167841
     89 C30         2.8940   -1.7960    3.6880 c3        1 MOL     -0.183116
     90 C31         1.4030   -2.3600    6.3460 c3        1 MOL     -0.265616
     91 H36        -0.2100   -4.4700    2.9120 hn        1 MOL      0.260720
     92 H37         0.4000   -1.6940    2.3660 h1        1 MOL      0.007238
     93 H38         1.9850   -3.6890    4.0040 hc        1 MOL     -0.027689
     94 H39        -0.0610   -2.8970    4.9580 hc        1 MOL     -0.030239
     95 H40         0.3970   -1.2150    4.9790 hc        1 MOL     -0.030239
     96 H41         3.5330   -1.9850    2.8220 hc        1 MOL      0.030207
     97 H42         2.5480   -0.7580    3.6240 hc        1 MOL      0.030207
     98 H43         3.5470   -1.8350    4.5580 hc        1 MOL      0.030207
     99 H44         1.8010   -3.3720    6.4260 hc        1 MOL      0.051730
    100 H45         2.1920   -1.6190    6.4900 hc        1 MOL      0.051730
    101 H46         0.5640   -2.1670    7.0090 hc        1 MOL      0.051730
    102 N10         1.7290   -2.0300    0.3780 n         1 MOL     -0.012490
    103 C32         2.5250   -1.9710   -0.8870 c3        1 MOL     -0.048179
    104 C33         3.9730   -1.4840   -0.6030 c         1 MOL      0.388392
    105 O16         4.3030   -1.0520    0.4990 o         1 MOL     -0.351585
    106 C34         1.7850   -1.1350   -1.9860 c3        1 MOL     -0.051615
    107 C35         0.3490   -1.7180   -2.2460 c         1 MOL      0.600982
    108 O17        -0.6020   -1.3150   -1.4930 o         1 MOL     -0.631611
    109 O18         0.1640   -2.4340   -3.2430 o         1 MOL     -0.631611
    110 H47         1.0130   -1.3290    0.4870 hn        1 MOL      0.200450
    111 H48         2.5250   -2.9240   -1.4100 h1        1 MOL      0.039296
    112 H49         2.3760   -1.1580   -2.8990 hc        1 MOL      0.017899
    113 H50         1.5520   -0.1310   -1.6240 hc        1 MOL      0.017899
    114 N11         4.8520   -1.6590   -1.5840 n         1 MOL     -0.453448
    115 C36         6.3010   -1.4090   -1.3760 c3        1 MOL      0.201375
    116 C37         6.5780    0.1170   -1.1310 c         1 MOL      0.278362
    117 O19         7.2320    0.4580   -0.1490 o         1 MOL     -0.468936
    118 C38         7.1820   -1.9000   -2.5030 c3        1 MOL     -0.195845
    119 C39         8.6440   -2.0560   -2.2620 ca        1 MOL      0.138138
    120 C40         9.5560   -1.0940   -2.8100 ca        1 MOL     -0.170675
    121 C41         9.1330   -3.2140   -1.6700 ca        1 MOL     -0.170675
    122 C42        10.9020   -1.1800   -2.5450 ca        1 MOL     -0.112676
    123 C43        10.5010   -3.4700   -1.6060 ca        1 MOL     -0.112676
    124 C44        11.3680   -2.4060   -1.9750 ca        1 MOL     -0.114718
    125 H51         4.4730   -2.0860   -2.4200 hn        1 MOL      0.299923
    126 H52         6.6680   -1.9630   -0.5140 h1        1 MOL      0.075385
    127 H53         7.0210   -1.2970   -3.4030 hc        1 MOL      0.060589
    128 H54         6.8130   -2.8840   -2.7840 hc        1 MOL      0.060589
    129 H55         9.1390   -0.1770   -3.1920 ha        1 MOL      0.121917
    130 H56         8.4590   -3.9910   -1.3420 ha        1 MOL      0.121917
    131 H57        11.6340   -0.4370   -2.8200 ha        1 MOL      0.120309
    132 H58        10.9100   -4.3550   -1.1520 ha        1 MOL      0.120309
    133 H59        12.3920   -2.6840   -1.7890 ha        1 MOL      0.089463
    134 N12         6.0660    1.1550   -1.8920 n         1 MOL     -0.030508
    135 C45         6.3320    2.5540   -1.5980 c3        1 MOL     -0.029470
    136 C46         5.6960    2.9490   -0.2240 c         1 MOL      0.413298
    137 O20         6.2450    3.6840    0.5810 o         1 MOL     -0.512963
    138 C47         5.8150    3.3810   -2.8080 c3        1 MOL     -0.119320
    139 C48         4.8840    2.3870   -3.5520 c3        1 MOL     -0.070430
    140 C49         5.2770    1.0110   -3.0920 c3        1 MOL      0.095877
    141 H60         7.4040    2.7100   -1.5550 h1        1 MOL      0.069822
    142 H61         5.3560    4.2920   -2.4330 hc        1 MOL      0.062056
    143 H62         6.6470    3.6530   -3.4600 hc        1 MOL      0.062056
    144 H63         3.8360    2.5170   -3.2780 hc        1 MOL      0.037166
    145 H64         5.0490    2.5020   -4.6260 hc        1 MOL      0.037166
    146 H65         4.3740    0.4230   -2.9420 h1        1 MOL     -0.008367
    147 H66         5.8530    0.4910   -3.8620 h1        1 MOL     -0.008367
    148 N13         4.6290    2.2980    0.2210 n         1 MOL     -0.211810
    149 C50         4.0830    2.3770    1.5130 c3        1 MOL     -0.005840
    150 C51         4.9510    1.8050    2.6580 c         1 MOL      0.419716
    151 O21         5.1250    2.4880    3.6280 o         1 MOL     -0.541216
    152 C52         2.6860    1.7260    1.6380 c3        1 MOL     -0.115163
    153 C53         1.8040    2.1800    0.4880 c3        1 MOL     -0.373948
    154 C54         0.3880    1.5520    0.4800 c         1 MOL      0.749859
    155 O22        -0.4280    1.9170   -0.4090 o         1 MOL     -0.718669
    156 O23         0.0600    0.6590    1.2880 o         1 MOL     -0.718669
    157 H67         4.1830    1.5970   -0.3480 hn        1 MOL      0.200439
    158 H68         3.8950    3.4070    1.8280 h1        1 MOL      0.089686
    159 H69         2.2950    2.0320    2.6020 hc        1 MOL      0.086226
    160 H70         2.7830    0.6400    1.5770 hc        1 MOL      0.086226
    161 H71         2.1930    1.9350   -0.4960 hc        1 MOL      0.123040
    162 H72         1.7970    3.2640    0.5280 hc        1 MOL      0.123040
    163 N14         5.5280    0.5910    2.4120 n         1 MOL     -0.002643
    164 C55         6.4170   -0.0950    3.3120 c3        1 MOL     -0.175466
    165 H73         6.0960   -1.1310    3.4200 h1        1 MOL      0.059423
    166 H74         7.4310   -0.0690    2.9120 h1        1 MOL      0.059423
    167 H75         6.3980    0.3940    4.2870 h1        1 MOL      0.059423
    168 H76         5.3700    0.1900    1.4950 hn        1 MOL      0.058858
    169 Ca1        -2.1580    0.0930   -0.0790 Ca        1 MOL      1.596385
    170 O24        -1.9510    0.2840    2.8610 oh        1 MOL     -0.767302
    171 H77        -1.0420    0.3970    2.6060 ho        1 MOL      0.368182
    172 H78        -1.9970    0.6400    3.7560 ho        1 MOL      0.368182
    173 O25        -4.3830   -0.6380    1.2170 oh        1 MOL     -0.767302
    174 H79        -4.3980   -1.1280    2.0360 ho        1 MOL      0.368182
    175 H80        -4.8120    0.2030    1.4220 ho        1 MOL      0.368182
@<TRIPOS>BOND
     1    1    2 1   
     2    1    4 1   
     3    1    5 1   
     4    1    6 1   
     5    2    3 2   
     6    2    7 1   
     7    7    8 1   
     8    7   15 1   
     9    8    9 1   
    10    8   11 1   
    11    8   16 1   
    12    9   10 2   
    13    9   19 1   
    14   11   12 1   
    15   11   17 1   
    16   11   18 1   
    17   12   13 1   
    18   12   14 1   
    19   19   20 1   
    20   19   24 1   
    21   20   21 1   
    22   20   23 1   
    23   20   25 1   
    24   21   22 2   
    25   21   29 1   
    26   23   26 1   
    27   23   27 1   
    28   23   28 1   
    29   29   30 1   
    30   29   37 1   
    31   30   31 1   
    32   30   33 1   
    33   30   38 1   
    34   31   32 2   
    35   31   41 1   
    36   33   34 1   
    37   33   39 1   
    38   33   40 1   
    39   34   35 1   
    40   34   36 1   
    41   41   42 1   
    42   41   45 1   
    43   42   43 1   
    44   42   46 1   
    45   42   47 1   
    46   43   44 2   
    47   43   48 1   
    48   48   49 1   
    49   48   56 1   
    50   49   50 1   
    51   49   52 1   
    52   49   57 1   
    53   50   51 2   
    54   50   62 1   
    55   52   53 1   
    56   52   58 1   
    57   52   59 1   
    58   53   54 1   
    59   53   55 2   
    60   54   60 1   
    61   54   61 1   
    62   62   63 1   
    63   62   66 1   
    64   63   64 1   
    65   63   67 1   
    66   63   68 1   
    67   64   65 2   
    68   64   69 1   
    69   69   70 1   
    70   69   76 1   
    71   70   71 1   
    72   70   73 1   
    73   70   77 1   
    74   71   72 2   
    75   71   83 1   
    76   73   74 1   
    77   73   75 1   
    78   73   78 1   
    79   74   80 1   
    80   74   81 1   
    81   74   82 1   
    82   75   79 1   
    83   83   84 1   
    84   83   91 1   
    85   84   85 1   
    86   84   87 1   
    87   84   92 1   
    88   85   86 2   
    89   85  102 1   
    90   87   88 1   
    91   87   89 1   
    92   87   93 1   
    93   88   90 1   
    94   88   94 1   
    95   88   95 1   
    96   89   96 1   
    97   89   97 1   
    98   89   98 1   
    99   90   99 1   
   100   90  100 1   
   101   90  101 1   
   102  102  103 1   
   103  102  110 1   
   104  103  104 1   
   105  103  106 1   
   106  103  111 1   
   107  104  105 2   
   108  104  114 1   
   109  106  107 1   
   110  106  112 1   
   111  106  113 1   
   112  107  108 1   
   113  107  109 1   
   114  114  115 1   
   115  114  125 1   
   116  115  116 1   
   117  115  118 1   
   118  115  126 1   
   119  116  117 2   
   120  116  134 1   
   121  118  119 1   
   122  118  127 1   
   123  118  128 1   
   124  119  120 ar  
   125  119  121 ar  
   126  120  122 ar  
   127  120  129 1   
   128  121  123 ar  
   129  121  130 1   
   130  122  124 ar  
   131  122  131 1   
   132  123  124 ar  
   133  123  132 1   
   134  124  133 1   
   135  134  135 1   
   136  134  140 1   
   137  135  136 1   
   138  135  138 1   
   139  135  141 1   
   140  136  137 2   
   141  136  148 1   
   142  138  139 1   
   143  138  142 1   
   144  138  143 1   
   145  139  140 1   
   146  139  144 1   
   147  139  145 1   
   148  140  146 1   
   149  140  147 1   
   150  148  149 1   
   151  148  157 1   
   152  149  150 1   
   153  149  152 1   
   154  149  158 1   
   155  150  151 2   
   156  150  163 1   
   157  152  153 1   
   158  152  159 1   
   159  152  160 1   
   160  153  154 1   
   161  153  161 1   
   162  153  162 1   
   163  154  155 1   
   164  154  156 1   
   165  163  164 1   
   166  163  168 1   
   167  164  165 1   
   168  164  166 1   
   169  164  167 1   
   170  170  171 1   
   171  170  172 1   
   172  173  174 1   
   173  173  175 1   
@<TRIPOS>SUBSTRUCTURE
     1 MOL         1 TEMP              0 ****  ****    0 ROOT
