@<TRIPOS>MOLECULE
MOL
  186   183     1     0     0
SMALL
resp


@<TRIPOS>ATOM
      1 C1          0.6500   -2.7360    6.0380 c3        1 MOL     -0.249811
      2 C2          0.9490   -2.2260    4.5870 c         1 MOL      0.602374
      3 O1          0.0940   -2.4400    3.7370 o         1 MOL     -0.533575
      4 H1          0.4070   -1.8870    6.6780 hc        1 MOL      0.056442
      5 H2         -0.1930   -3.4260    6.0150 hc        1 MOL      0.056442
      6 H3          1.5280   -3.2470    6.4320 hc        1 MOL      0.056442
      7 N1          2.1850   -1.8110    4.2970 n         1 MOL     -0.486617
      8 C3          2.7000   -1.6070    2.9800 c3        1 MOL      0.151723
      9 C4          3.2070   -2.8860    2.3160 c         1 MOL      0.382361
     10 O2          4.3950   -3.2180    2.5320 o         1 MOL     -0.526519
     11 C5          3.8220   -0.5170    3.0850 c3        1 MOL      0.005358
     12 C6          4.5300   -0.3900    1.7400 c         1 MOL      0.532507
     13 O3          5.6650    0.0550    1.6880 o         1 MOL     -0.612765
     14 O4          3.8490   -0.7010    0.7200 o         1 MOL     -0.612765
     15 H4          2.7520   -1.4770    5.0640 hn        1 MOL      0.278552
     16 H5          1.9050   -1.1390    2.4010 h1        1 MOL     -0.021823
     17 H6          4.4760   -0.6620    3.9510 hc        1 MOL     -0.014706
     18 H7          3.3050    0.4180    3.3360 hc        1 MOL     -0.014706
     19 N2          2.2760   -3.6740    1.7450 n         1 MOL     -0.010442
     20 C7          2.4730   -5.0810    1.3540 c3        1 MOL     -0.471388
     21 C8          3.0930   -5.2210   -0.0360 c         1 MOL      0.422578
     22 O5          3.5990   -6.2660   -0.3510 o         1 MOL     -0.571396
     23 C9          1.2190   -6.0380    1.6080 c3        1 MOL      0.262374
     24 C10        -0.0090   -5.7110    0.7080 c3        1 MOL      0.110154
     25 C11         0.9680   -6.2020    3.0740 c3        1 MOL     -0.389897
     26 C12        -1.0940   -6.8060    0.7970 c3        1 MOL     -0.416345
     27 H8          1.3380   -3.3460    1.5670 hn        1 MOL      0.239039
     28 H9          3.2680   -5.4510    1.9920 h1        1 MOL      0.200260
     29 H10         1.3530   -7.0820    1.3240 hc        1 MOL     -0.004541
     30 H11         0.2900   -5.6140   -0.3360 hc        1 MOL      0.042135
     31 H12        -0.3810   -4.8030    1.1810 hc        1 MOL      0.042135
     32 H13         0.3970   -5.3710    3.4850 hc        1 MOL      0.084088
     33 H14         0.3660   -7.1020    3.1930 hc        1 MOL      0.084088
     34 H15         1.9270   -6.1880    3.5800 hc        1 MOL      0.084088
     35 H16        -0.5370   -7.7320    0.6600 hc        1 MOL      0.098586
     36 H17        -1.5890   -6.8750    1.7710 hc        1 MOL      0.098586
     37 H18        -1.8170   -6.6330    0.0080 hc        1 MOL      0.098586
     38 N3          3.2700   -4.1640   -0.8700 n         1 MOL     -0.006496
     39 C13         4.0980   -4.1290   -2.1400 c3        1 MOL      0.136191
     40 C14         5.4530   -3.4060   -2.0800 c         1 MOL      0.330425
     41 O6          6.3340   -3.5640   -2.9440 o         1 MOL     -0.545057
     42 C15         3.2990   -3.7750   -3.2870 c3        1 MOL     -0.298470
     43 C16         2.7750   -2.3780   -3.2370 c         1 MOL      0.863855
     44 O7          3.1690   -1.5730   -2.3360 o         1 MOL     -0.735769
     45 O8          1.9540   -1.9980   -4.1030 o         1 MOL     -0.735769
     46 H19         2.8610   -3.2630   -0.6730 hn        1 MOL     -0.011087
     47 H20         4.3510   -5.1780   -2.3180 h1        1 MOL      0.047752
     48 H21         2.4860   -4.5060   -3.2390 hc        1 MOL      0.065576
     49 H22         3.9210   -3.8260   -4.1740 hc        1 MOL      0.065576
     50 N4          5.6750   -2.6750   -0.9750 n         1 MOL     -0.013119
     51 C17         6.9330   -2.2910   -0.3200 c3        1 MOL     -0.383487
     52 C18         7.4400   -0.9230   -0.8440 c         1 MOL      0.689630
     53 O9          8.6210   -0.6630   -0.6110 o         1 MOL     -0.642440
     54 H23         4.9120   -2.6610   -0.3060 hn        1 MOL      0.107401
     55 H24         7.7620   -2.9470   -0.5700 h1        1 MOL      0.141963
     56 H25         6.8410   -2.2430    0.7690 h1        1 MOL      0.141963
     57 N5          6.6210   -0.1340   -1.5480 n         1 MOL     -0.397361
     58 C19         7.1910    1.0760   -2.0440 c3        1 MOL      0.045809
     59 C20         7.4080    2.2210   -0.9610 c         1 MOL      0.362516
     60 O10         7.8610    3.2880   -1.3870 o         1 MOL     -0.548321
     61 C21         6.2220    1.5390   -3.1540 c3        1 MOL     -0.194933
     62 C22         4.7780    1.8290   -2.7250 c         1 MOL      0.712314
     63 O11         4.0590    2.6130   -3.4400 o         1 MOL     -0.730396
     64 O12         4.2260    1.2290   -1.7690 o         1 MOL     -0.730396
     65 H26         5.6670   -0.4240   -1.7110 hn        1 MOL      0.259848
     66 H27         8.1360    0.8160   -2.5150 h1        1 MOL      0.073291
     67 H28         6.2140    0.7030   -3.8590 hc        1 MOL      0.062275
     68 H29         6.7310    2.3560   -3.6790 hc        1 MOL      0.062275
     69 N6          6.9820    1.9960    0.2970 n         1 MOL     -0.098612
     70 C23         7.0660    3.0320    1.3950 c3        1 MOL     -0.269544
     71 C24         5.8070    3.8240    1.7850 c         1 MOL      0.620875
     72 O13         5.8960    4.8340    2.4310 o         1 MOL     -0.592486
     73 H30         6.7640    1.0380    0.5470 hn        1 MOL      0.206786
     74 H31         7.9050    3.6870    1.1610 h1        1 MOL      0.105797
     75 H32         7.2150    2.4950    2.3290 h1        1 MOL      0.105797
     76 N7          4.6620    3.4690    1.1800 n         1 MOL     -0.380658
     77 C25         3.3570    4.1860    1.4190 c3        1 MOL     -0.012891
     78 C26         2.2940    3.1020    1.5140 c         1 MOL      0.699892
     79 O14         2.3930    2.0590    0.8650 o         1 MOL     -0.685880
     80 C27         2.9550    5.1260    0.1730 c3        1 MOL     -0.042738
     81 C28         3.9470    6.2710   -0.0620 c3        1 MOL     -0.334905
     82 C29         3.2490    7.1250   -1.0630 c         1 MOL      0.689165
     83 N8          3.2760    6.8110   -2.3260 n         1 MOL     -0.806137
     84 O15         2.6190    8.0520   -0.6990 o         1 MOL     -0.603191
     85 H33         4.6610    2.7040    0.5230 hn        1 MOL      0.308626
     86 H34         3.2910    4.7340    2.3560 h1        1 MOL      0.071918
     87 H35         1.9360    5.4940    0.2930 hc        1 MOL      0.081839
     88 H36         3.0630    4.5060   -0.7160 hc        1 MOL      0.081839
     89 H37         4.9250    5.9620   -0.4290 hc        1 MOL      0.118265
     90 H38         4.3370    6.8440    0.7670 hc        1 MOL      0.118265
     91 H39         3.7880    6.0060   -2.6600 hn        1 MOL      0.363079
     92 H40         2.6680    7.3390   -2.9450 hn        1 MOL      0.363079
     93 N9          1.3050    3.2970    2.3870 n         1 MOL     -0.681897
     94 C30         0.1020    2.4800    2.2960 c3        1 MOL      0.272708
     95 C31        -0.7900    3.0980    1.2420 c         1 MOL      0.354305
     96 O16        -0.9430    4.2930    1.1890 o         1 MOL     -0.592588
     97 C32        -0.5860    2.3550    3.6510 c3        1 MOL      0.207257
     98 C33        -2.1360    2.2350    3.5560 c3        1 MOL     -0.271442
     99 C34        -0.0280    1.2060    4.4370 c3        1 MOL     -0.271442
    100 H41         1.1830    4.1930    2.8470 hn        1 MOL      0.318540
    101 H42         0.3740    1.4870    1.9350 h1        1 MOL      0.158354
    102 H43        -0.3380    3.2460    4.2320 hc        1 MOL     -0.026479
    103 H44        -2.5410    3.0720    2.9830 hc        1 MOL      0.052648
    104 H45        -2.2850    1.4070    2.8620 hc        1 MOL      0.052648
    105 H46        -2.5330    2.0570    4.5580 hc        1 MOL      0.052648
    106 H47         0.0300    0.2620    3.8900 hc        1 MOL      0.052648
    107 H48         0.9700    1.3790    4.8370 hc        1 MOL      0.052648
    108 H49        -0.6530    1.0380    5.3130 hc        1 MOL      0.052648
    109 N10        -1.4580    2.3000    0.4750 n         1 MOL     -0.038672
    110 C35        -2.5420    2.6510   -0.4600 c3        1 MOL      0.235921
    111 C36        -3.8680    1.9620   -0.1780 c         1 MOL      0.204861
    112 O17        -3.9350    0.9740    0.5620 o         1 MOL     -0.168281
    113 C37        -1.9630    2.1370   -1.7990 c3        1 MOL     -0.178663
    114 C38        -2.9340    2.3950   -2.8820 c         1 MOL      0.697462
    115 N11        -3.2820    3.5950   -3.2540 n         1 MOL     -0.781696
    116 O18        -3.5240    1.5010   -3.4320 o         1 MOL     -0.566646
    117 H50        -1.2220    1.3380    0.6500 hn        1 MOL     -0.025965
    118 H51        -2.6560    3.7330   -0.5440 h1        1 MOL      0.006139
    119 H52        -1.8170    1.0600   -1.8020 hc        1 MOL      0.071965
    120 H53        -1.0380    2.6610   -2.0380 hc        1 MOL      0.071965
    121 H54        -3.0450    4.4660   -2.7830 hn        1 MOL      0.339572
    122 H55        -4.0890    3.5830   -3.8510 hn        1 MOL      0.339572
    123 N12        -4.9890    2.5120   -0.5880 n         1 MOL     -0.448202
    124 C39        -6.3340    2.1260   -0.1990 c3        1 MOL      0.203917
    125 C40        -6.6140    0.6190   -0.3780 c         1 MOL      0.597674
    126 O19        -7.1480    0.0020    0.5940 o         1 MOL     -0.540843
    127 C41        -7.4280    2.9860   -0.9130 c3        1 MOL     -0.197302
    128 C42        -8.7300    2.6670   -0.2290 ca        1 MOL     -0.006274
    129 C43        -8.9570    3.1780    1.0920 ca        1 MOL     -0.138444
    130 C44        -9.7230    1.8620   -0.7800 ca        1 MOL     -0.138444
    131 C45       -10.2160    2.9720    1.6880 ca        1 MOL     -0.241704
    132 C46       -10.9360    1.5320   -0.1270 ca        1 MOL     -0.241704
    133 C47       -11.1870    2.0890    1.1120 ca        1 MOL      0.331098
    134 O20       -12.3470    1.8900    1.8640 oh        1 MOL     -0.541327
    135 H56        -4.8940    3.4370   -0.9830 hn        1 MOL      0.238503
    136 H57        -6.3570    2.2590    0.8770 h1        1 MOL      0.062380
    137 H58        -7.4770    2.7470   -1.9780 hc        1 MOL      0.082909
    138 H59        -7.2530    4.0520   -0.8700 hc        1 MOL      0.082909
    139 H60        -8.2350    3.8720    1.5010 ha        1 MOL      0.127030
    140 H61        -9.5840    1.3420   -1.7090 ha        1 MOL      0.127030
    141 H62       -10.4330    3.3440    2.6860 ha        1 MOL      0.139142
    142 H63       -11.6950    0.9460   -0.6300 ha        1 MOL      0.139142
    143 H64       -12.8990    1.1960    1.5040 ho        1 MOL      0.386939
    144 N13        -6.2140   -0.0290   -1.4460 n         1 MOL     -0.402447
    145 C48        -6.3710   -1.5080   -1.6290 c3        1 MOL     -0.103613
    146 C49        -5.5120   -2.3620   -0.6650 c         1 MOL      0.331580
    147 O21        -5.6970   -3.5880   -0.4840 o         1 MOL     -0.522392
    148 C50        -5.9340   -1.8700   -3.0880 c3        1 MOL      0.107529
    149 C51        -6.2080   -3.3550   -3.5120 c3        1 MOL     -0.331225
    150 C52        -6.1680   -3.4890   -5.0280 c         1 MOL      0.757188
    151 O22        -5.1300   -3.8310   -5.5990 o         1 MOL     -0.754720
    152 O23        -7.1690   -3.1670   -5.7070 o         1 MOL     -0.754720
    153 H65        -5.8290    0.4470   -2.2430 hn        1 MOL      0.224845
    154 H66        -7.4020   -1.8210   -1.5130 h1        1 MOL      0.141101
    155 H67        -4.9100   -1.6560   -3.4020 hc        1 MOL      0.027434
    156 H68        -6.5820   -1.2510   -3.7090 hc        1 MOL      0.027434
    157 H69        -7.2470   -3.5310   -3.2130 hc        1 MOL      0.059987
    158 H70        -5.4380   -3.9910   -3.0920 hc        1 MOL      0.059987
    159 N14        -4.5940   -1.7630    0.0550 n         1 MOL     -0.127352
    160 C53        -3.8180   -2.3370    1.1590 c3        1 MOL      0.031772
    161 C54        -4.3000   -1.9480    2.5340 c         1 MOL      0.373238
    162 O24        -4.1750   -2.7010    3.4890 o         1 MOL     -0.559663
    163 C55        -2.3590   -1.8730    1.1120 c3        1 MOL      0.373625
    164 C56        -1.5320   -2.0460   -0.1940 c3        1 MOL     -0.164263
    165 C57        -0.1210   -1.4570   -0.1810 c         1 MOL      0.823617
    166 O25         0.8590   -2.1220   -0.5490 o         1 MOL     -0.819523
    167 O26         0.0560   -0.3770    0.3920 o         1 MOL     -0.819523
    168 H71        -4.4550   -0.7610    0.0050 hn        1 MOL      0.075690
    169 H72        -3.6720   -3.4190    1.1680 h1        1 MOL      0.062647
    170 H73        -1.8200   -2.3580    1.9310 hc        1 MOL     -0.085826
    171 H74        -2.4120   -0.8270    1.3940 hc        1 MOL     -0.085826
    172 H75        -2.1400   -1.5370   -0.9450 hc        1 MOL      0.021806
    173 H76        -1.5320   -3.1070   -0.4470 hc        1 MOL      0.021806
    174 N15        -5.0930   -0.8840    2.6780 n         1 MOL      0.023489
    175 C58        -5.7500   -0.2820    3.8020 c3        1 MOL     -0.226616
    176 H77        -5.0400    0.3400    4.3470 h1        1 MOL      0.082669
    177 H78        -6.5790    0.3340    3.4530 h1        1 MOL      0.082669
    178 H79        -6.1290   -1.0630    4.4620 h1        1 MOL      0.082669
    179 H80        -5.1090   -0.3090    1.8530 hn        1 MOL     -0.049523
    180 Ca1         2.1550    0.1480   -0.9400 Ca        1 MOL      1.796182
    181 O27         0.4100   -0.1900   -2.9420 oh        1 MOL     -0.949606
    182 H81        -0.4610   -0.4790   -3.2140 ho        1 MOL      0.436744
    183 H82         1.0040   -0.6500   -3.5300 ho        1 MOL      0.436744
    184 O28         1.6200    2.4890   -2.0940 oh        1 MOL     -0.949606
    185 H83         2.4980    2.7520   -2.3800 ho        1 MOL      0.436744
    186 H84         1.0870    2.5610   -2.8910 ho        1 MOL      0.436744
@<TRIPOS>BOND
     1    1    2 1   
     2    1    4 1   
     3    1    5 1   
     4    1    6 1   
     5    2    3 2   
     6    2    7 1   
     7    7    8 1   
     8    7   15 1   
     9    8    9 1   
    10    8   11 1   
    11    8   16 1   
    12    9   10 2   
    13    9   19 1   
    14   11   12 1   
    15   11   17 1   
    16   11   18 1   
    17   12   13 1   
    18   12   14 1   
    19   19   20 1   
    20   19   27 1   
    21   20   21 1   
    22   20   23 1   
    23   20   28 1   
    24   21   22 2   
    25   21   38 1   
    26   23   24 1   
    27   23   25 1   
    28   23   29 1   
    29   24   26 1   
    30   24   30 1   
    31   24   31 1   
    32   25   32 1   
    33   25   33 1   
    34   25   34 1   
    35   26   35 1   
    36   26   36 1   
    37   26   37 1   
    38   38   39 1   
    39   38   46 1   
    40   39   40 1   
    41   39   42 1   
    42   39   47 1   
    43   40   41 2   
    44   40   50 1   
    45   42   43 1   
    46   42   48 1   
    47   42   49 1   
    48   43   44 1   
    49   43   45 1   
    50   50   51 1   
    51   50   54 1   
    52   51   52 1   
    53   51   55 1   
    54   51   56 1   
    55   52   53 2   
    56   52   57 1   
    57   57   58 1   
    58   57   65 1   
    59   58   59 1   
    60   58   61 1   
    61   58   66 1   
    62   59   60 2   
    63   59   69 1   
    64   61   62 1   
    65   61   67 1   
    66   61   68 1   
    67   62   63 1   
    68   62   64 1   
    69   69   70 1   
    70   69   73 1   
    71   70   71 1   
    72   70   74 1   
    73   70   75 1   
    74   71   72 2   
    75   71   76 1   
    76   76   77 1   
    77   76   85 1   
    78   77   78 1   
    79   77   80 1   
    80   77   86 1   
    81   78   79 2   
    82   78   93 1   
    83   80   81 1   
    84   80   87 1   
    85   80   88 1   
    86   81   82 1   
    87   81   89 1   
    88   81   90 1   
    89   82   83 1   
    90   82   84 2   
    91   83   91 1   
    92   83   92 1   
    93   93   94 1   
    94   93  100 1   
    95   94   95 1   
    96   94   97 1   
    97   94  101 1   
    98   95   96 2   
    99   95  109 1   
   100   97   98 1   
   101   97   99 1   
   102   97  102 1   
   103   98  103 1   
   104   98  104 1   
   105   98  105 1   
   106   99  106 1   
   107   99  107 1   
   108   99  108 1   
   109  109  110 1   
   110  109  117 1   
   111  110  111 1   
   112  110  113 1   
   113  110  118 1   
   114  111  112 2   
   115  111  123 1   
   116  113  114 1   
   117  113  119 1   
   118  113  120 1   
   119  114  115 1   
   120  114  116 2   
   121  115  121 1   
   122  115  122 1   
   123  123  124 1   
   124  123  135 1   
   125  124  125 1   
   126  124  127 1   
   127  124  136 1   
   128  125  126 2   
   129  125  144 1   
   130  127  128 1   
   131  127  137 1   
   132  127  138 1   
   133  128  129 ar  
   134  128  130 ar  
   135  129  131 ar  
   136  129  139 1   
   137  130  132 ar  
   138  130  140 1   
   139  131  133 ar  
   140  131  141 1   
   141  132  133 ar  
   142  132  142 1   
   143  133  134 1   
   144  134  143 1   
   145  144  145 1   
   146  144  153 1   
   147  145  146 1   
   148  145  148 1   
   149  145  154 1   
   150  146  147 2   
   151  146  159 1   
   152  148  149 1   
   153  148  155 1   
   154  148  156 1   
   155  149  150 1   
   156  149  157 1   
   157  149  158 1   
   158  150  151 1   
   159  150  152 1   
   160  159  160 1   
   161  159  168 1   
   162  160  161 1   
   163  160  163 1   
   164  160  169 1   
   165  161  162 2   
   166  161  174 1   
   167  163  164 1   
   168  163  170 1   
   169  163  171 1   
   170  164  165 1   
   171  164  172 1   
   172  164  173 1   
   173  165  166 1   
   174  165  167 1   
   175  174  175 1   
   176  174  179 1   
   177  175  176 1   
   178  175  177 1   
   179  175  178 1   
   180  181  182 1   
   181  181  183 1   
   182  184  185 1   
   183  184  186 1   
@<TRIPOS>SUBSTRUCTURE
     1 MOL         1 TEMP              0 ****  ****    0 ROOT
