@<TRIPOS>MOLECULE
MOL
  189   185     1     0     0
SMALL
resp


@<TRIPOS>ATOM
      1 C1          0.2880   -2.1860    6.4370 c3        1 MOL     -0.519924
      2 C2          0.7500   -2.2310    4.9600 c         1 MOL      0.725480
      3 O1          0.6450   -1.2480    4.2940 o         1 MOL     -0.558683
      4 H1         -0.7860   -2.0040    6.4750 hc        1 MOL      0.135189
      5 H2          0.5110   -3.1380    6.9180 hc        1 MOL      0.135189
      6 H3          0.8100   -1.3830    6.9580 hc        1 MOL      0.135189
      7 N1          1.3060   -3.3950    4.4590 n         1 MOL     -0.646030
      8 C3          2.0870   -3.3960    3.1350 c3        1 MOL      0.322932
      9 C4          1.9000   -4.7210    2.3610 c         1 MOL      0.309156
     10 O2          1.8490   -5.8050    2.9960 o         1 MOL     -0.569615
     11 C5          3.5920   -3.1070    3.2960 c3        1 MOL     -0.163487
     12 C6          4.3140   -2.5830    2.0600 c         1 MOL      0.712291
     13 O3          5.5710   -2.4950    2.0530 o         1 MOL     -0.697145
     14 O4          3.7280   -2.3600    0.9650 o         1 MOL     -0.697145
     15 H4          1.4100   -4.2110    5.0460 hn        1 MOL      0.317536
     16 H5          1.6930   -2.6210    2.4860 h1        1 MOL      0.049400
     17 H6          4.1360   -3.9580    3.7170 hc        1 MOL      0.011632
     18 H7          3.6170   -2.3300    4.0530 hc        1 MOL      0.011632
     19 N2          1.9390   -4.5990    1.0450 n         1 MOL      0.089640
     20 C7          2.1780   -5.6620    0.0630 c3        1 MOL     -0.146880
     21 C8          3.0840   -5.3010   -1.0530 c         1 MOL      0.543646
     22 O5          3.5540   -6.3120   -1.6820 o         1 MOL     -0.627373
     23 C9          0.8030   -6.2550   -0.4320 c3        1 MOL      0.270866
     24 C10         0.0630   -5.2600   -1.3850 c3        1 MOL     -0.194494
     25 C11        -0.0950   -6.6690    0.7650 c3        1 MOL     -0.383714
     26 C12        -1.3330   -5.6870   -1.7430 c3        1 MOL     -0.110063
     27 H8          1.9070   -3.6370    0.7380 hn        1 MOL     -0.072778
     28 H9          2.6980   -6.4470    0.6000 h1        1 MOL      0.084205
     29 H10         1.0760   -7.1300   -1.0320 hc        1 MOL     -0.031427
     30 H11         0.6050   -5.2030   -2.3350 hc        1 MOL      0.089894
     31 H12         0.0150   -4.2700   -0.9390 hc        1 MOL      0.089894
     32 H13         0.4520   -7.0530    1.6260 hc        1 MOL      0.087779
     33 H14        -0.7400   -5.8600    1.1080 hc        1 MOL      0.087779
     34 H15        -0.8360   -7.3620    0.3650 hc        1 MOL      0.087779
     35 H16        -1.7540   -5.1450   -2.5910 hc        1 MOL      0.029286
     36 H17        -1.3350   -6.7570   -1.9460 hc        1 MOL      0.029286
     37 H18        -1.9960   -5.6450   -0.8780 hc        1 MOL      0.029286
     38 N3          3.4640   -4.0700   -1.3410 n         1 MOL     -0.363453
     39 C13         4.2370   -3.7090   -2.6230 c3        1 MOL     -0.009182
     40 C14         5.6460   -2.9760   -2.3880 c         1 MOL      0.373028
     41 O6          6.3460   -2.8560   -3.3670 o         1 MOL     -0.514550
     42 C15         3.4240   -2.8780   -3.5940 c3        1 MOL     -0.279424
     43 C16         2.9510   -1.5830   -3.0410 c         1 MOL      0.885488
     44 O7          3.2990   -1.1290   -1.9810 o         1 MOL     -0.762794
     45 O8          2.1620   -0.8910   -3.7550 o         1 MOL     -0.762794
     46 H19         3.3240   -3.3610   -0.6400 hn        1 MOL      0.262224
     47 H20         4.3490   -4.6370   -3.1730 h1        1 MOL      0.133707
     48 H21         2.5770   -3.5240   -3.8250 hc        1 MOL      0.072528
     49 H22         4.0850   -2.7440   -4.4440 hc        1 MOL      0.072528
     50 N4          6.0660   -2.5980   -1.1940 n         1 MOL     -0.150667
     51 C17         7.4020   -2.0280   -0.9160 c3        1 MOL     -0.228276
     52 C18         7.7180   -0.6160   -1.4290 c         1 MOL      0.528186
     53 O9          8.8950   -0.2560   -1.4490 o         1 MOL     -0.593805
     54 H23         5.5320   -2.7130   -0.3470 hn        1 MOL      0.201165
     55 H24         8.1870   -2.6520   -1.3220 h1        1 MOL      0.105937
     56 H25         7.5270   -1.9490    0.1550 h1        1 MOL      0.105937
     57 N5          6.7480    0.2430   -1.6490 n         1 MOL     -0.226210
     58 C19         6.9070    1.4980   -2.3580 c3        1 MOL     -0.071294
     59 C20         7.2440    2.7020   -1.3930 c         1 MOL      0.514904
     60 O10         7.9910    3.6250   -1.7750 o         1 MOL     -0.569676
     61 C21         5.5730    1.7330   -3.1100 c3        1 MOL     -0.108983
     62 C22         4.3400    2.0710   -2.2740 c         1 MOL      0.720073
     63 O11         4.2550    1.6220   -1.0910 o         1 MOL     -0.690318
     64 O12         3.4020    2.6920   -2.8080 o         1 MOL     -0.690318
     65 H26         5.7830   -0.0330   -1.5540 hn        1 MOL      0.211915
     66 H27         7.7460    1.4040   -3.0400 h1        1 MOL      0.100726
     67 H28         5.2950    0.9720   -3.8370 hc        1 MOL      0.044323
     68 H29         5.7800    2.5850   -3.7590 hc        1 MOL      0.044323
     69 N6          6.7850    2.7000   -0.1400 n         1 MOL     -0.351570
     70 C23         6.8200    3.8290    0.7980 c3        1 MOL      0.057752
     71 C24         5.5800    4.6490    1.1590 c         1 MOL      0.384004
     72 O13         5.7070    5.6460    1.8510 o         1 MOL     -0.585017
     73 H30         6.0920    2.0130    0.1120 hn        1 MOL      0.171847
     74 H31         7.6060    4.5270    0.5020 h1        1 MOL      0.048306
     75 H32         7.2040    3.4030    1.7220 h1        1 MOL      0.048306
     76 N7          4.4500    4.1830    0.7150 n         1 MOL     -0.044425
     77 C25         3.1220    4.6980    1.0310 c3        1 MOL     -0.064382
     78 C26         2.0340    3.6220    1.2180 c         1 MOL      0.304470
     79 O14         2.2000    2.4690    0.8460 o         1 MOL     -0.449694
     80 C27         2.6550    5.5680   -0.1470 c3        1 MOL     -0.104353
     81 C28         3.4210    6.7780   -0.4210 c3        1 MOL     -0.196050
     82 C29         2.7100    7.7490   -1.3290 c         1 MOL      0.648674
     83 N8          2.9610    7.6820   -2.6140 n         1 MOL     -0.794869
     84 O15         2.0340    8.6530   -0.8730 o         1 MOL     -0.589074
     85 H33         4.5000    3.4280    0.0510 hn        1 MOL      0.110643
     86 H34         3.1030    5.2620    1.9610 h1        1 MOL      0.085748
     87 H35         1.6780    5.9490    0.1410 hc        1 MOL      0.082559
     88 H36         2.4650    4.9960   -1.0570 hc        1 MOL      0.082559
     89 H37         4.3750    6.4580   -0.8490 hc        1 MOL      0.083076
     90 H38         3.6690    7.2760    0.5210 hc        1 MOL      0.083076
     91 H39         3.4390    6.8900   -3.0360 hn        1 MOL      0.365252
     92 H40         2.5360    8.4110   -3.1580 hn        1 MOL      0.365252
     93 N9          0.8880    3.9840    1.8090 n         1 MOL     -0.339698
     94 C30        -0.2790    3.1250    2.0350 c3        1 MOL      0.072288
     95 C31        -1.3690    3.2330    0.9570 c         1 MOL      0.487110
     96 O16        -1.9230    4.3440    0.7730 o         1 MOL     -0.576707
     97 C32        -0.9550    3.3620    3.3990 c3        1 MOL      0.246513
     98 C33        -2.1030    2.3780    3.6810 c3        1 MOL     -0.274138
     99 C34        -0.1070    3.2870    4.6510 c3        1 MOL     -0.274138
    100 H41         0.8490    4.9630    2.0680 hn        1 MOL      0.267689
    101 H42         0.0480    2.0890    2.0130 h1        1 MOL      0.145284
    102 H43        -1.3180    4.3920    3.2380 hc        1 MOL     -0.052786
    103 H44        -2.8290    2.3900    2.8690 hc        1 MOL      0.051247
    104 H45        -1.7140    1.3610    3.8120 hc        1 MOL      0.051247
    105 H46        -2.5940    2.7080    4.5930 hc        1 MOL      0.051247
    106 H47         0.6660    4.0340    4.4580 hc        1 MOL      0.051247
    107 H48        -0.5470    3.5930    5.6070 hc        1 MOL      0.051247
    108 H49         0.3800    2.3110    4.6830 hc        1 MOL      0.051247
    109 N10        -1.4410    2.1640    0.1460 n         1 MOL     -0.160313
    110 C35        -2.4570    1.9660   -0.9150 c3        1 MOL     -0.091830
    111 C36        -3.8850    1.8210   -0.2970 c         1 MOL      0.544681
    112 O17        -3.9620    1.3140    0.8530 o         1 MOL     -0.540338
    113 C37        -1.9720    0.8360   -1.8030 c3        1 MOL     -0.011897
    114 C38        -2.9020    0.3670   -2.8830 c         1 MOL      0.504061
    115 N11        -2.7650   -0.8980   -3.3270 n         1 MOL     -0.572357
    116 O18        -3.8010    1.0680   -3.3220 o         1 MOL     -0.561176
    117 H50        -0.8990    1.3430    0.3890 hn        1 MOL     -0.017198
    118 H51        -2.5660    2.8810   -1.5130 h1        1 MOL      0.059712
    119 H52        -1.7630   -0.0170   -1.1590 hc        1 MOL      0.092091
    120 H53        -1.0460    1.1100   -2.3150 hc        1 MOL      0.092091
    121 H54        -1.9480   -1.4620   -3.1410 hn        1 MOL      0.309922
    122 H55        -3.3410   -1.0950   -4.1290 hn        1 MOL      0.309922
    123 N12        -4.9360    2.1230   -0.9800 n         1 MOL     -0.378951
    124 C39        -6.3230    2.0360   -0.5770 c3        1 MOL      0.097497
    125 C40        -6.5530    0.5480   -0.1960 c         1 MOL      0.446039
    126 O19        -7.3100    0.2540    0.6900 o         1 MOL     -0.511559
    127 C41        -7.1990    2.4920   -1.7610 c3        1 MOL     -0.155054
    128 C42        -8.7020    2.5130   -1.4520 ca        1 MOL     -0.022690
    129 C43        -9.3280    3.5870   -0.7920 ca        1 MOL     -0.120494
    130 C44        -9.5360    1.4800   -1.9450 ca        1 MOL     -0.120494
    131 C45       -10.7500    3.6310   -0.5550 ca        1 MOL     -0.279332
    132 C46       -10.9350    1.5230   -1.6480 ca        1 MOL     -0.279332
    133 C47       -11.5070    2.5610   -1.0290 ca        1 MOL      0.384149
    134 O20       -12.8530    2.5600   -0.8770 oh        1 MOL     -0.541000
    135 H56        -4.8120    2.4300   -1.9380 hn        1 MOL      0.248866
    136 H57        -6.5400    2.6830    0.2800 h1        1 MOL      0.074623
    137 H58        -7.1130    1.9240   -2.6970 hc        1 MOL      0.089113
    138 H59        -6.8700    3.5070   -1.9770 hc        1 MOL      0.089113
    139 H60        -8.7140    4.4470   -0.5960 ha        1 MOL      0.131385
    140 H61        -9.1230    0.6570   -2.5120 ha        1 MOL      0.131385
    141 H62       -11.2740    4.4560   -0.1030 ha        1 MOL      0.142465
    142 H63       -11.5310    0.6740   -1.9760 ha        1 MOL      0.142465
    143 H64       -13.1750    1.6790   -1.0640 ho        1 MOL      0.370248
    144 N13        -5.9500   -0.4430   -0.8590 n         1 MOL     -0.144360
    145 C48        -6.1210   -1.8560   -0.5790 c3        1 MOL     -0.134223
    146 C49        -5.3970   -2.2030    0.7790 c         1 MOL      0.340151
    147 O21        -5.8780   -3.0970    1.4570 o         1 MOL     -0.525282
    148 C50        -5.5140   -2.7880   -1.6800 c3        1 MOL      0.179336
    149 C51        -6.3070   -2.5380   -2.9820 c3        1 MOL     -0.408868
    150 C52        -6.0050   -3.7550   -3.9680 c         1 MOL      0.707158
    151 O22        -4.9200   -3.8880   -4.5810 o         1 MOL     -0.720903
    152 O23        -6.7990   -4.7010   -3.9860 o         1 MOL     -0.720903
    153 H65        -5.1500   -0.1920   -1.4190 hn        1 MOL      0.089781
    154 H66        -7.1900   -2.0140   -0.4650 h1        1 MOL      0.131601
    155 H67        -5.7220   -3.7850   -1.2940 hc        1 MOL      0.026925
    156 H68        -4.4310   -2.7370   -1.7650 hc        1 MOL      0.026925
    157 H69        -5.9930   -1.6120   -3.4600 hc        1 MOL      0.064282
    158 H70        -7.3760   -2.5010   -2.7670 hc        1 MOL      0.064282
    159 N14        -4.3390   -1.4670    1.1280 n         1 MOL     -0.097265
    160 C53        -3.5580   -1.7040    2.3210 c3        1 MOL     -0.176423
    161 C54        -4.1440   -1.0350    3.5930 c         1 MOL      0.440400
    162 O24        -3.7430   -1.4140    4.6670 o         1 MOL     -0.567863
    163 C55        -2.1810   -1.1920    2.0130 c3        1 MOL     -0.041209
    164 C56        -1.3600   -1.9710    0.9200 c3        1 MOL     -0.217540
    165 C57         0.0310   -1.3720    0.6800 c         1 MOL      0.600862
    166 O25         1.0160   -2.0340    0.2130 o         1 MOL     -0.661391
    167 O26         0.2770   -0.1730    1.0680 o         1 MOL     -0.661391
    168 H71        -4.0480   -0.7080    0.5260 hn        1 MOL      0.118412
    169 H72        -3.5010   -2.7630    2.5550 h1        1 MOL      0.129670
    170 H73        -1.6140   -1.0460    2.9380 hc        1 MOL      0.135049
    171 H74        -2.3460   -0.2020    1.5870 hc        1 MOL      0.135049
    172 H75        -1.8130   -1.9980   -0.0700 hc        1 MOL      0.068383
    173 H76        -1.2860   -3.0070    1.2400 hc        1 MOL      0.068383
    174 N15        -5.1330   -0.1850    3.4230 n         1 MOL     -0.021739
    175 C58        -5.8620    0.4660    4.4650 c3        1 MOL     -0.218030
    176 H77        -5.8910    1.5400    4.2720 h1        1 MOL      0.078054
    177 H78        -6.8800    0.0760    4.4960 h1        1 MOL      0.078054
    178 H79        -5.3730    0.2820    5.4220 h1        1 MOL      0.078054
    179 H80        -5.3940   -0.1620    2.4420 hn        1 MOL      0.133075
    180 Ca1         2.7690   -0.0110    0.2150 Ca        1 MOL      1.767438
    181 O27         2.5760    0.2630    2.9060 oh        1 MOL     -0.863754
    182 H81         3.2920    0.2850    3.5420 ho        1 MOL      0.413179
    183 H82         1.8530   -0.1710    3.3740 ho        1 MOL      0.413179
    184 O28         5.4700    0.2660    1.4150 oh        1 MOL     -0.863754
    185 H83         5.7520    0.6820    2.2270 ho        1 MOL      0.413179
    186 H84         6.0450   -0.4950    1.3210 ho        1 MOL      0.413179
    187 O29         1.4930    0.9590   -1.9360 oh        1 MOL     -0.863754
    188 H85         2.0190    1.7580   -1.9820 ho        1 MOL      0.413179
    189 H86         1.7340    0.4750   -2.7210 ho        1 MOL      0.413179
@<TRIPOS>BOND
     1    1    2 1   
     2    1    4 1   
     3    1    5 1   
     4    1    6 1   
     5    2    3 2   
     6    2    7 1   
     7    7    8 1   
     8    7   15 1   
     9    8    9 1   
    10    8   11 1   
    11    8   16 1   
    12    9   10 2   
    13    9   19 1   
    14   11   12 1   
    15   11   17 1   
    16   11   18 1   
    17   12   13 1   
    18   12   14 1   
    19   19   20 1   
    20   19   27 1   
    21   20   21 1   
    22   20   23 1   
    23   20   28 1   
    24   21   22 2   
    25   21   38 1   
    26   23   24 1   
    27   23   25 1   
    28   23   29 1   
    29   24   26 1   
    30   24   30 1   
    31   24   31 1   
    32   25   32 1   
    33   25   33 1   
    34   25   34 1   
    35   26   35 1   
    36   26   36 1   
    37   26   37 1   
    38   38   39 1   
    39   38   46 1   
    40   39   40 1   
    41   39   42 1   
    42   39   47 1   
    43   40   41 2   
    44   40   50 1   
    45   42   43 1   
    46   42   48 1   
    47   42   49 1   
    48   43   44 1   
    49   43   45 1   
    50   50   51 1   
    51   50   54 1   
    52   51   52 1   
    53   51   55 1   
    54   51   56 1   
    55   52   53 2   
    56   52   57 1   
    57   57   58 1   
    58   57   65 1   
    59   58   59 1   
    60   58   61 1   
    61   58   66 1   
    62   59   60 2   
    63   59   69 1   
    64   61   62 1   
    65   61   67 1   
    66   61   68 1   
    67   62   63 1   
    68   62   64 1   
    69   69   70 1   
    70   69   73 1   
    71   70   71 1   
    72   70   74 1   
    73   70   75 1   
    74   71   72 2   
    75   71   76 1   
    76   76   77 1   
    77   76   85 1   
    78   77   78 1   
    79   77   80 1   
    80   77   86 1   
    81   78   79 2   
    82   78   93 1   
    83   80   81 1   
    84   80   87 1   
    85   80   88 1   
    86   81   82 1   
    87   81   89 1   
    88   81   90 1   
    89   82   83 1   
    90   82   84 2   
    91   83   91 1   
    92   83   92 1   
    93   93   94 1   
    94   93  100 1   
    95   94   95 1   
    96   94   97 1   
    97   94  101 1   
    98   95   96 2   
    99   95  109 1   
   100   97   98 1   
   101   97   99 1   
   102   97  102 1   
   103   98  103 1   
   104   98  104 1   
   105   98  105 1   
   106   99  106 1   
   107   99  107 1   
   108   99  108 1   
   109  109  110 1   
   110  109  117 1   
   111  110  111 1   
   112  110  113 1   
   113  110  118 1   
   114  111  112 2   
   115  111  123 1   
   116  113  114 1   
   117  113  119 1   
   118  113  120 1   
   119  114  115 1   
   120  114  116 2   
   121  115  121 1   
   122  115  122 1   
   123  123  124 1   
   124  123  135 1   
   125  124  125 1   
   126  124  127 1   
   127  124  136 1   
   128  125  126 2   
   129  125  144 1   
   130  127  128 1   
   131  127  137 1   
   132  127  138 1   
   133  128  129 ar  
   134  128  130 ar  
   135  129  131 ar  
   136  129  139 1   
   137  130  132 ar  
   138  130  140 1   
   139  131  133 ar  
   140  131  141 1   
   141  132  133 ar  
   142  132  142 1   
   143  133  134 1   
   144  134  143 1   
   145  144  145 1   
   146  144  153 1   
   147  145  146 1   
   148  145  148 1   
   149  145  154 1   
   150  146  147 2   
   151  146  159 1   
   152  148  149 1   
   153  148  155 1   
   154  148  156 1   
   155  149  150 1   
   156  149  157 1   
   157  149  158 1   
   158  150  151 1   
   159  150  152 1   
   160  159  160 1   
   161  159  168 1   
   162  160  161 1   
   163  160  163 1   
   164  160  169 1   
   165  161  162 2   
   166  161  174 1   
   167  163  164 1   
   168  163  170 1   
   169  163  171 1   
   170  164  165 1   
   171  164  172 1   
   172  164  173 1   
   173  165  166 1   
   174  165  167 1   
   175  174  175 1   
   176  174  179 1   
   177  175  176 1   
   178  175  177 1   
   179  175  178 1   
   180  181  182 1   
   181  181  183 1   
   182  184  185 1   
   183  184  186 1   
   184  187  188 1   
   185  187  189 1   
@<TRIPOS>SUBSTRUCTURE
     1 MOL         1 TEMP              0 ****  ****    0 ROOT
