@<TRIPOS>MOLECULE
MOL
  189   185     1     0     0
SMALL
resp


@<TRIPOS>ATOM
      1 C1         -0.9700    2.8910   -4.7590 c3        1 MOL     -0.292821
      2 C2         -0.1410    2.7720   -3.4290 c         1 MOL      0.385738
      3 O1         -0.6550    3.2160   -2.3810 o         1 MOL     -0.537918
      4 H1         -0.3770    3.4150   -5.5090 hc        1 MOL      0.083936
      5 H2         -1.2200    1.8950   -5.1230 hc        1 MOL      0.083936
      6 H3         -1.8870    3.4480   -4.5670 hc        1 MOL      0.083936
      7 N1          1.0100    2.1040   -3.5030 n         1 MOL     -0.268031
      8 C3          1.8470    1.6460   -2.3670 c3        1 MOL      0.128381
      9 C4          2.7090    2.8280   -1.8550 c         1 MOL      0.232162
     10 O2          3.8660    3.0320   -2.1490 o         1 MOL     -0.452467
     11 C5          2.6350    0.4240   -2.8040 c3        1 MOL     -0.398092
     12 C6          3.6320    0.0540   -1.7830 c         1 MOL      0.939925
     13 O3          3.2380    0.1930   -0.5650 o         1 MOL     -0.749742
     14 O4          4.7090   -0.5220   -2.0760 o         1 MOL     -0.749742
     15 H4          1.1640    1.6320   -4.3850 hn        1 MOL      0.248125
     16 H5          1.1690    1.3510   -1.5660 h1        1 MOL      0.057330
     17 H6          3.1570    0.6030   -3.7490 hc        1 MOL      0.086129
     18 H7          1.8780   -0.3500   -2.9230 hc        1 MOL      0.086129
     19 N2          2.0570    3.7250   -1.1260 n         1 MOL     -0.182525
     20 C7          2.6270    5.0260   -0.6290 c3        1 MOL      0.042872
     21 C8          3.7470    4.8690    0.4580 c         1 MOL      0.412937
     22 O5          4.5590    5.7710    0.4580 o         1 MOL     -0.571527
     23 C9          1.4800    5.8590   -0.0170 c3        1 MOL     -0.050918
     24 C10         0.9090    6.9750   -0.9090 c3        1 MOL      0.014753
     25 C11         0.1190    6.5310   -2.1510 c3        1 MOL     -0.087822
     26 C12        -0.7050    7.7310   -2.6380 c3        1 MOL      0.025210
     27 N3         -1.8060    7.2990   -3.5130 n4        1 MOL     -0.282974
     28 H8          1.0790    3.5200   -0.9700 hn        1 MOL      0.220653
     29 H9          3.0780    5.5470   -1.4680 h1        1 MOL      0.078661
     30 H10         1.8640    6.3930    0.8540 hc        1 MOL      0.038448
     31 H11         0.8140    5.1200    0.4320 hc        1 MOL      0.038448
     32 H12         1.6570    7.6930   -1.2450 hc        1 MOL      0.016736
     33 H13         0.2340    7.5290   -0.2640 hc        1 MOL      0.016736
     34 H14        -0.5390    5.7160   -1.8320 hc        1 MOL      0.061164
     35 H15         0.8010    6.1750   -2.9280 hc        1 MOL      0.061164
     36 H16        -0.1460    8.5410   -3.1250 hx        1 MOL      0.077214
     37 H17        -1.0850    8.2460   -1.7540 hx        1 MOL      0.077214
     38 H18        -2.0980    6.4210   -3.0930 hn        1 MOL      0.307537
     39 H19        -2.6430    7.8590   -3.6100 hn        1 MOL      0.307537
     40 H20        -1.5490    7.1500   -4.4760 hn        1 MOL      0.307537
     41 N4          3.7900    3.8240    1.2520 n         1 MOL     -0.243069
     42 C13         4.6520    3.6620    2.4430 c3        1 MOL      0.249844
     43 C14         5.7730    2.5950    2.1530 c         1 MOL      0.383113
     44 O6          6.5070    2.2950    3.1080 o         1 MOL     -0.506023
     45 C15         3.7840    3.5230    3.7120 c3        1 MOL     -0.419938
     46 C16         2.7400    2.4350    3.6000 c         1 MOL      0.916527
     47 O7          2.6130    1.7580    2.5570 o         1 MOL     -0.766966
     48 O8          1.7970    2.3140    4.4340 o         1 MOL     -0.766966
     49 H21         3.0740    3.1220    1.1570 hn        1 MOL      0.170153
     50 H22         5.1530    4.6140    2.5680 h1        1 MOL      0.046447
     51 H23         3.3040    4.4900    3.8470 hc        1 MOL      0.094585
     52 H24         4.4960    3.2850    4.5040 hc        1 MOL      0.094585
     53 N5          5.8990    2.1030    0.8980 n         1 MOL     -0.301223
     54 C17         7.1730    1.5980    0.3710 c3        1 MOL     -0.112497
     55 C18         7.4910    0.1700    0.4780 c         1 MOL      0.420088
     56 O9          8.5900   -0.2360    0.0840 o         1 MOL     -0.578200
     57 H25         5.0750    2.1220    0.3200 hn        1 MOL      0.204782
     58 H26         7.9220    2.2870    0.7750 h1        1 MOL      0.115084
     59 H27         7.1820    1.8840   -0.6850 h1        1 MOL      0.115084
     60 N6          6.5630   -0.6050    1.0030 n         1 MOL     -0.093900
     61 C19         6.7160   -1.9960    1.4530 c3        1 MOL     -0.111196
     62 C20         6.7900   -2.9970    0.2950 c         1 MOL      0.417722
     63 O10         6.9820   -4.2350    0.5130 o         1 MOL     -0.527484
     64 C21         5.7520   -2.3480    2.5970 c3        1 MOL     -0.277614
     65 C22         4.3070   -1.8240    2.3130 c         1 MOL      0.825013
     66 O11         3.7440   -2.2900    1.2600 o         1 MOL     -0.756051
     67 O12         3.6150   -1.1800    3.1020 o         1 MOL     -0.756051
     68 H28         5.7390   -0.0710    1.2350 hn        1 MOL      0.152481
     69 H29         7.6820   -2.0740    1.9550 h1        1 MOL      0.132685
     70 H30         6.0190   -1.7880    3.4930 hc        1 MOL      0.096687
     71 H31         5.7470   -3.4380    2.6020 hc        1 MOL      0.096687
     72 N7          6.5470   -2.6070   -0.9460 n         1 MOL     -0.228261
     73 C23         6.4060   -3.4590   -2.0890 c3        1 MOL     -0.160451
     74 C24         5.1090   -4.2460   -2.0840 c         1 MOL      0.531734
     75 O13         4.9820   -5.2140   -2.8130 o         1 MOL     -0.576821
     76 H32         6.2220   -1.6530   -1.0860 hn        1 MOL      0.320608
     77 H33         7.1760   -4.2150   -2.2470 h1        1 MOL      0.097790
     78 H34         6.3950   -2.7600   -2.9270 h1        1 MOL      0.097790
     79 N8          4.1480   -3.8570   -1.2420 n         1 MOL      0.006451
     80 C25         2.8120   -4.5640   -1.1460 c3        1 MOL     -0.454563
     81 C26         1.5700   -3.6200   -1.2230 c         1 MOL      0.887133
     82 O14         1.6580   -2.5240   -0.6290 o         1 MOL     -0.653672
     83 C27         2.7940   -5.4480    0.1270 c3        1 MOL      0.602623
     84 C28         3.5210   -6.7700   -0.1730 c3        1 MOL     -0.395383
     85 O15         3.4750   -4.8090    1.2600 oh        1 MOL     -0.689142
     86 H35         4.2430   -2.9770   -0.7550 hn        1 MOL      0.028711
     87 H36         2.6660   -5.2780   -1.9610 h1        1 MOL      0.121733
     88 H37         1.7520   -5.6900    0.3540 h1        1 MOL     -0.061403
     89 H38         3.7530   -3.9210    1.0250 ho        1 MOL      0.453246
     90 H39         3.1800   -7.5100    0.5380 hc        1 MOL      0.094210
     91 H40         3.1980   -7.1190   -1.1520 hc        1 MOL      0.094210
     92 H41         4.6070   -6.6250   -0.1530 hc        1 MOL      0.094210
     93 N9          0.4880   -3.9170   -1.9950 n         1 MOL     -0.809091
     94 C29        -0.7490   -2.9750   -2.0100 c3        1 MOL      0.199510
     95 C30        -1.9110   -3.5150   -1.1550 c         1 MOL      0.432541
     96 O16        -2.3330   -4.6940   -1.3440 o         1 MOL     -0.551509
     97 C31        -1.2310   -2.7500   -3.4360 c3        1 MOL      0.094705
     98 C32        -0.1990   -1.9340   -4.2140 c3        1 MOL      0.132872
     99 C33        -2.5980   -2.1490   -3.5400 c3        1 MOL     -0.242142
    100 C34        -0.4320   -2.0220   -5.7610 c3        1 MOL     -0.280473
    101 H42         0.3960   -4.8360   -2.4190 hn        1 MOL      0.373873
    102 H43        -0.4130   -2.0040   -1.6490 h1        1 MOL      0.049312
    103 H44        -1.3050   -3.7470   -3.8680 hc        1 MOL      0.015760
    104 H45         0.8420   -2.2120   -4.0580 hc        1 MOL      0.014645
    105 H46        -0.3920   -0.8900   -3.9890 hc        1 MOL      0.014645
    106 H47        -2.8330   -1.8000   -4.5370 hc        1 MOL      0.042481
    107 H48        -3.4040   -2.7900   -3.1730 hc        1 MOL      0.042481
    108 H49        -2.7500   -1.2400   -2.9490 hc        1 MOL      0.042481
    109 H50        -1.4260   -1.6330   -5.9890 hc        1 MOL      0.062907
    110 H51         0.3230   -1.3740   -6.2180 hc        1 MOL      0.062907
    111 H52        -0.1960   -3.0410   -6.0730 hc        1 MOL      0.062907
    112 N10        -2.3960   -2.6320   -0.2920 n         1 MOL     -0.112601
    113 C35        -3.5990   -2.7450    0.6260 c3        1 MOL     -0.047822
    114 C36        -4.8960   -2.3440   -0.0890 c         1 MOL      0.277684
    115 O17        -4.8000   -1.5720   -1.0690 o         1 MOL     -0.254074
    116 C37        -3.3690   -1.9470    1.9390 c3        1 MOL      0.037687
    117 C38        -2.3170   -2.4980    2.9260 c3        1 MOL     -0.174514
    118 O18        -3.1840   -0.5750    1.7520 oh        1 MOL     -0.539043
    119 H53        -1.7840   -1.8380   -0.1780 hn        1 MOL      0.115727
    120 H54        -3.6660   -3.7990    0.9170 h1        1 MOL      0.079034
    121 H55        -4.2930   -2.0230    2.5160 h1        1 MOL      0.073558
    122 H56        -2.2880   -0.5260    1.4100 ho        1 MOL      0.368620
    123 H57        -2.6440   -2.2330    3.9310 hc        1 MOL      0.062525
    124 H58        -2.2470   -3.5830    2.8590 hc        1 MOL      0.062525
    125 H59        -1.2940   -2.1430    2.7570 hc        1 MOL      0.062525
    126 N11        -6.1050   -2.7950    0.4040 n         1 MOL     -0.172056
    127 C39        -7.4250   -2.4540   -0.1020 c3        1 MOL     -0.253131
    128 C40        -7.8660   -1.0450    0.1840 c         1 MOL      0.459227
    129 O19        -8.6420   -0.4350   -0.5700 o         1 MOL     -0.522098
    130 C41        -8.5130   -3.4100    0.4540 c3        1 MOL      0.338276
    131 C42        -8.3520   -4.8130   -0.1690 c3        1 MOL     -0.377482
    132 O20        -8.4030   -3.5610    1.8560 oh        1 MOL     -0.638657
    133 H60        -6.1270   -3.3930    1.2110 hn        1 MOL      0.234210
    134 H61        -7.4660   -2.4870   -1.1880 h1        1 MOL      0.150821
    135 H62        -9.5100   -3.0570    0.1890 h1        1 MOL      0.062697
    136 H63        -8.5440   -4.5020    1.9980 ho        1 MOL      0.412210
    137 H64        -8.3470   -4.6130   -1.2400 hc        1 MOL      0.105233
    138 H65        -7.4010   -5.2260    0.1470 hc        1 MOL      0.105233
    139 H66        -9.2470   -5.4060    0.0190 hc        1 MOL      0.105233
    140 N12        -7.2470   -0.4330    1.2250 n         1 MOL     -0.215698
    141 C43        -7.1980    1.0210    1.4950 c3        1 MOL     -0.026884
    142 C44        -6.2530    1.8460    0.6010 c         1 MOL      0.396923
    143 O21        -6.6050    2.9640    0.2910 o         1 MOL     -0.497897
    144 C45        -7.0790    1.2210    3.0010 c3        1 MOL     -0.183931
    145 C46        -5.7130    0.7880    3.5820 c3        1 MOL      0.258504
    146 C47        -5.5290    1.4340    4.9840 c3        1 MOL     -0.269681
    147 C48        -4.1460    1.1020    5.5950 c3        1 MOL      0.267444
    148 N13        -3.9420    1.7750    6.8350 n4        1 MOL     -0.431751
    149 H67        -6.7200   -1.1050    1.7600 hn        1 MOL      0.164358
    150 H68        -8.1800    1.4530    1.3230 h1        1 MOL      0.122555
    151 H69        -7.8700    0.6570    3.4970 hc        1 MOL      0.061942
    152 H70        -7.1930    2.2930    3.1720 hc        1 MOL      0.061942
    153 H71        -4.8920    1.1140    2.9440 hc        1 MOL     -0.028152
    154 H72        -5.6680   -0.2920    3.7020 hc        1 MOL     -0.028152
    155 H73        -6.3620    1.2590    5.6650 hc        1 MOL      0.067713
    156 H74        -5.5060    2.4900    4.7020 hc        1 MOL      0.067713
    157 H75        -3.3620    1.1790    4.8450 hx        1 MOL      0.027462
    158 H76        -4.1510    0.0610    5.9150 hx        1 MOL      0.027462
    159 H77        -4.7150    1.6470    7.4740 hn        1 MOL      0.344648
    160 H78        -3.0830    1.4240    7.2510 hn        1 MOL      0.344648
    161 H79        -3.8020    2.7590    6.6760 hn        1 MOL      0.344648
    162 N14        -5.1260    1.3240    0.0690 n         1 MOL      0.063270
    163 C49        -4.3760    1.9300   -0.9980 c3        1 MOL     -0.425936
    164 C50        -5.2110    1.9870   -2.2270 c         1 MOL      0.527510
    165 O22        -5.3820    3.0360   -2.8580 o         1 MOL     -0.540373
    166 C51        -2.9360    1.3560   -1.0530 c3        1 MOL      0.146969
    167 C52        -2.0480    1.8780    0.0070 c3        1 MOL     -0.101151
    168 C53        -0.8790    0.9740    0.2470 c         1 MOL      0.688998
    169 O23         0.2240    1.4820    0.5180 o         1 MOL     -0.683665
    170 O24        -0.9390   -0.2390    0.2970 o         1 MOL     -0.683665
    171 H80        -4.6930    0.4570    0.3710 hn        1 MOL      0.059097
    172 H81        -4.3010    2.9860   -0.7370 h1        1 MOL      0.123598
    173 H82        -2.4780    1.5820   -2.0200 hc        1 MOL      0.016568
    174 H83        -2.9900    0.2670   -1.1470 hc        1 MOL      0.016568
    175 H84        -2.6900    2.0110    0.8730 hc        1 MOL      0.033571
    176 H85        -1.6580    2.8570   -0.2370 hc        1 MOL      0.033571
    177 N15        -5.7680    0.7910   -2.6720 n         1 MOL     -0.118833
    178 C54        -6.7150    0.7200   -3.7700 c3        1 MOL     -0.264749
    179 H86        -6.4440    1.4510   -4.5310 h1        1 MOL      0.106242
    180 H87        -6.6950   -0.2800   -4.2050 h1        1 MOL      0.106242
    181 H88        -7.7180    0.9360   -3.4010 h1        1 MOL      0.106242
    182 H89        -5.4190    0.0230   -2.1260 hn        1 MOL      0.097041
    183 Ca1         1.6980   -0.5280    1.3480 Ca        1 MOL      1.736738
    184 O25         1.0800   -3.1840    2.4380 oh        1 MOL     -0.825688
    185 H90         1.7530   -3.8210    2.1850 ho        1 MOL      0.382059
    186 H91         1.1370   -3.1390    3.3960 ho        1 MOL      0.382059
    187 O26         0.1000    0.2870    3.5110 oh        1 MOL     -0.825688
    188 H92        -0.4440   -0.0210    4.2410 ho        1 MOL      0.382059
    189 H93         0.6810    0.9340    3.9140 ho        1 MOL      0.382059
@<TRIPOS>BOND
     1    1    2 1   
     2    1    4 1   
     3    1    5 1   
     4    1    6 1   
     5    2    3 2   
     6    2    7 1   
     7    7    8 1   
     8    7   15 1   
     9    8    9 1   
    10    8   11 1   
    11    8   16 1   
    12    9   10 2   
    13    9   19 1   
    14   11   12 1   
    15   11   17 1   
    16   11   18 1   
    17   12   13 1   
    18   12   14 1   
    19   19   20 1   
    20   19   28 1   
    21   20   21 1   
    22   20   23 1   
    23   20   29 1   
    24   21   22 2   
    25   21   41 1   
    26   23   24 1   
    27   23   30 1   
    28   23   31 1   
    29   24   25 1   
    30   24   32 1   
    31   24   33 1   
    32   25   26 1   
    33   25   34 1   
    34   25   35 1   
    35   26   27 1   
    36   26   36 1   
    37   26   37 1   
    38   27   38 1   
    39   27   39 1   
    40   27   40 1   
    41   41   42 1   
    42   41   49 1   
    43   42   43 1   
    44   42   45 1   
    45   42   50 1   
    46   43   44 2   
    47   43   53 1   
    48   45   46 1   
    49   45   51 1   
    50   45   52 1   
    51   46   47 1   
    52   46   48 1   
    53   53   54 1   
    54   53   57 1   
    55   54   55 1   
    56   54   58 1   
    57   54   59 1   
    58   55   56 2   
    59   55   60 1   
    60   60   61 1   
    61   60   68 1   
    62   61   62 1   
    63   61   64 1   
    64   61   69 1   
    65   62   63 2   
    66   62   72 1   
    67   64   65 1   
    68   64   70 1   
    69   64   71 1   
    70   65   66 1   
    71   65   67 1   
    72   72   73 1   
    73   72   76 1   
    74   73   74 1   
    75   73   77 1   
    76   73   78 1   
    77   74   75 2   
    78   74   79 1   
    79   79   80 1   
    80   79   86 1   
    81   80   81 1   
    82   80   83 1   
    83   80   87 1   
    84   81   82 2   
    85   81   93 1   
    86   83   84 1   
    87   83   85 1   
    88   83   88 1   
    89   84   90 1   
    90   84   91 1   
    91   84   92 1   
    92   85   89 1   
    93   93   94 1   
    94   93  101 1   
    95   94   95 1   
    96   94   97 1   
    97   94  102 1   
    98   95   96 2   
    99   95  112 1   
   100   97   98 1   
   101   97   99 1   
   102   97  103 1   
   103   98  100 1   
   104   98  104 1   
   105   98  105 1   
   106   99  106 1   
   107   99  107 1   
   108   99  108 1   
   109  100  109 1   
   110  100  110 1   
   111  100  111 1   
   112  112  113 1   
   113  112  119 1   
   114  113  114 1   
   115  113  116 1   
   116  113  120 1   
   117  114  115 2   
   118  114  126 1   
   119  116  117 1   
   120  116  118 1   
   121  116  121 1   
   122  117  123 1   
   123  117  124 1   
   124  117  125 1   
   125  118  122 1   
   126  126  127 1   
   127  126  133 1   
   128  127  128 1   
   129  127  130 1   
   130  127  134 1   
   131  128  129 2   
   132  128  140 1   
   133  130  131 1   
   134  130  132 1   
   135  130  135 1   
   136  131  137 1   
   137  131  138 1   
   138  131  139 1   
   139  132  136 1   
   140  140  141 1   
   141  140  149 1   
   142  141  142 1   
   143  141  144 1   
   144  141  150 1   
   145  142  143 2   
   146  142  162 1   
   147  144  145 1   
   148  144  151 1   
   149  144  152 1   
   150  145  146 1   
   151  145  153 1   
   152  145  154 1   
   153  146  147 1   
   154  146  155 1   
   155  146  156 1   
   156  147  148 1   
   157  147  157 1   
   158  147  158 1   
   159  148  159 1   
   160  148  160 1   
   161  148  161 1   
   162  162  163 1   
   163  162  171 1   
   164  163  164 1   
   165  163  166 1   
   166  163  172 1   
   167  164  165 2   
   168  164  177 1   
   169  166  167 1   
   170  166  173 1   
   171  166  174 1   
   172  167  168 1   
   173  167  175 1   
   174  167  176 1   
   175  168  169 1   
   176  168  170 1   
   177  177  178 1   
   178  177  182 1   
   179  178  179 1   
   180  178  180 1   
   181  178  181 1   
   182  184  185 1   
   183  184  186 1   
   184  187  188 1   
   185  187  189 1   
@<TRIPOS>SUBSTRUCTURE
     1 MOL         1 TEMP              0 ****  ****    0 ROOT
