@<TRIPOS>MOLECULE
MOL
  175   173     1     0     0
SMALL
resp


@<TRIPOS>ATOM
      1 C1          0.6350    3.8730    5.4370 c3        1 MOL     -0.403128
      2 C2          0.0560    3.8160    3.9530 c         1 MOL      0.664891
      3 O1          0.7260    3.8760    2.9540 o         1 MOL     -0.496427
      4 H1          1.3640    4.6800    5.5130 hc        1 MOL      0.098937
      5 H2         -0.1800    4.0530    6.1380 hc        1 MOL      0.098937
      6 H3          1.1170    2.9240    5.6760 hc        1 MOL      0.098937
      7 N1         -1.2840    3.6710    3.8870 n         1 MOL     -0.635211
      8 C3         -2.0460    3.5510    2.6910 c3        1 MOL      0.011120
      9 C4         -1.9570    4.8200    1.8360 c         1 MOL      0.616970
     10 O2         -1.9620    5.9830    2.3390 o         1 MOL     -0.569220
     11 C5         -3.4860    3.0990    2.9550 c3        1 MOL     -0.199082
     12 C6         -3.9380    2.0400    2.0160 c         1 MOL      0.720687
     13 O3         -4.9570    1.4080    2.3620 o         1 MOL     -0.674664
     14 O4         -3.4390    1.9460    0.8790 o         1 MOL     -0.674664
     15 H4         -1.7900    3.7940    4.7530 hn        1 MOL      0.342849
     16 H5         -1.5630    2.7330    2.1500 h1        1 MOL      0.181888
     17 H6         -4.2010    3.9290    3.0100 hc        1 MOL      0.056285
     18 H7         -3.5250    2.7340    3.9830 hc        1 MOL      0.056285
     19 N2         -2.0590    4.6210    0.4800 n         1 MOL     -0.672914
     20 C7         -2.3280    5.6510   -0.5200 c3        1 MOL      0.356931
     21 C8         -3.4540    5.2430   -1.5380 c         1 MOL      0.399186
     22 O5         -3.7230    6.0530   -2.4650 o         1 MOL     -0.557471
     23 C9         -0.9970    6.0270   -1.2440 c3        1 MOL     -0.192670
     24 H8         -1.9930    3.6470    0.2000 hn        1 MOL      0.470500
     25 H9         -2.5980    6.5770   -0.0170 h1        1 MOL     -0.002533
     26 H10        -0.2100    6.2640   -0.5320 hc        1 MOL      0.047441
     27 H11        -0.6900    5.2600   -1.9430 hc        1 MOL      0.047441
     28 H12        -1.1920    6.8500   -1.9320 hc        1 MOL      0.047441
     29 N3         -4.0690    4.0750   -1.4630 n         1 MOL     -0.436022
     30 C10        -5.0350    3.5940   -2.4630 c3        1 MOL      0.378219
     31 C11        -6.3150    2.8070   -1.9570 c         1 MOL      0.236554
     32 O6         -7.3660    2.8460   -2.6360 o         1 MOL     -0.530074
     33 C12        -4.3490    2.7650   -3.5210 c3        1 MOL     -0.459274
     34 C13        -3.3900    1.7410   -2.9150 c         1 MOL      0.873152
     35 O7         -2.2560    1.6050   -3.4290 o         1 MOL     -0.722091
     36 O8         -3.7170    0.9680   -2.0100 o         1 MOL     -0.722091
     37 H13        -3.7910    3.4510   -0.7170 hn        1 MOL      0.144821
     38 H14        -5.5110    4.4640   -2.9340 h1        1 MOL      0.024130
     39 H15        -3.7100    3.5030   -4.0040 hc        1 MOL      0.103019
     40 H16        -5.1820    2.4020   -4.1220 hc        1 MOL      0.103019
     41 N4         -6.2170    2.1100   -0.8400 n         1 MOL     -0.055125
     42 C14        -7.2630    1.4210   -0.1770 c3        1 MOL     -0.234135
     43 C15        -7.2170   -0.0940   -0.5890 c         1 MOL      0.534418
     44 O9         -8.1860   -0.7630   -0.2350 o         1 MOL     -0.589439
     45 H17        -5.3400    2.1330   -0.3400 hn        1 MOL      0.137018
     46 H18        -8.2690    1.8200   -0.2820 h1        1 MOL      0.122135
     47 H19        -7.0360    1.4100    0.8920 h1        1 MOL      0.122135
     48 N5         -6.2690   -0.5510   -1.4510 n         1 MOL     -0.280455
     49 C16        -6.3510   -1.9490   -1.9650 c3        1 MOL     -0.013470
     50 C17        -6.4770   -3.1760   -1.0020 c         1 MOL      0.601240
     51 O10        -6.8710   -4.2430   -1.3900 o         1 MOL     -0.560296
     52 C18        -5.2670   -2.1520   -3.0730 c3        1 MOL     -0.153884
     53 C19        -3.8530   -2.0980   -2.5580 c         1 MOL      0.392607
     54 N6         -2.9260   -1.9840   -3.4390 n         1 MOL     -0.556281
     55 O11        -3.5260   -2.0680   -1.3580 o         1 MOL     -0.344329
     56 H20        -5.5070    0.0850   -1.6200 hn        1 MOL      0.217256
     57 H21        -7.2880   -2.1540   -2.4730 h1        1 MOL      0.065571
     58 H22        -5.3700   -1.3960   -3.8500 hc        1 MOL      0.065510
     59 H23        -5.4260   -3.1170   -3.5400 hc        1 MOL      0.065510
     60 H24        -3.2540   -1.8870   -4.3910 hn        1 MOL      0.315742
     61 H25        -1.9670   -2.0310   -3.1220 hn        1 MOL      0.315742
     62 N7         -6.1760   -3.0600    0.3360 n         1 MOL     -0.374745
     63 C20        -6.1690   -4.1180    1.3230 c3        1 MOL     -0.005645
     64 C21        -4.9240   -4.8260    1.5770 c         1 MOL      0.538679
     65 O12        -4.9160   -5.7820    2.2790 o         1 MOL     -0.598245
     66 H26        -5.7380   -2.2000    0.6570 hn        1 MOL      0.208706
     67 H27        -6.8310   -4.9650    1.1170 h1        1 MOL      0.057236
     68 H28        -6.5800   -3.8460    2.2950 h1        1 MOL      0.057236
     69 N8         -3.8790   -4.2100    1.0790 n         1 MOL     -0.170427
     70 C22        -2.4540   -4.6110    1.0540 c3        1 MOL     -0.190008
     71 C23        -1.3860   -3.5160    1.2850 c         1 MOL      0.534081
     72 O13        -1.5930   -2.4230    0.6800 o         1 MOL     -0.506558
     73 C24        -2.0770   -5.3390   -0.2600 c3        1 MOL      0.403561
     74 C25        -2.6260   -6.7880   -0.2790 c3        1 MOL     -0.423026
     75 O14        -2.5490   -4.6110   -1.3940 oh        1 MOL     -0.551120
     76 H29        -4.0530   -3.3690    0.5500 hn        1 MOL      0.071609
     77 H30        -2.2940   -5.3600    1.8370 h1        1 MOL      0.080428
     78 H31        -1.0010   -5.3370   -0.4300 h1        1 MOL      0.015754
     79 H32        -2.3070   -3.6920   -1.2450 ho        1 MOL      0.297948
     80 H33        -2.4360   -7.3540    0.6390 hc        1 MOL      0.110234
     81 H34        -3.7070   -6.7390   -0.4280 hc        1 MOL      0.110234
     82 H35        -2.1790   -7.4330   -1.0340 hc        1 MOL      0.110234
     83 N9         -0.3350   -3.7710    2.0590 n         1 MOL     -0.548631
     84 C26         0.8680   -2.8990    2.0190 c3        1 MOL      0.010419
     85 C27         1.5200   -3.0960    0.6150 c         1 MOL      0.478223
     86 O15         1.8580   -4.2200    0.2560 o         1 MOL     -0.567140
     87 C28         1.6600   -3.1940    3.2620 c3        1 MOL      0.072946
     88 C29         1.1240   -2.4260    4.4090 c3        1 MOL      0.053915
     89 C30         3.1770   -2.8750    3.1770 c3        1 MOL     -0.110650
     90 C31         1.5670   -2.9600    5.8270 c3        1 MOL     -0.174781
     91 H36        -0.1740   -4.6900    2.4640 hn        1 MOL      0.314579
     92 H37         0.4180   -1.9060    2.0670 h1        1 MOL     -0.037370
     93 H38         1.5610   -4.2680    3.4050 hc        1 MOL      0.024665
     94 H39         0.0480   -2.3870    4.5140 hc        1 MOL      0.024459
     95 H40         1.5090   -1.4060    4.4110 hc        1 MOL      0.024459
     96 H41         3.2960   -1.8170    2.9260 hc        1 MOL      0.020699
     97 H42         3.6910   -3.1660    4.0860 hc        1 MOL      0.020699
     98 H43         3.6880   -3.3760    2.3530 hc        1 MOL      0.020699
     99 H44         1.6150   -4.0510    5.8140 hc        1 MOL      0.032420
    100 H45         2.5670   -2.5430    5.9710 hc        1 MOL      0.032420
    101 H46         0.9090   -2.5920    6.6090 hc        1 MOL      0.032420
    102 N10         1.7840   -1.9780   -0.0530 n         1 MOL     -0.108029
    103 C32         2.5760   -1.9480   -1.2690 c3        1 MOL     -0.042213
    104 C33         4.0060   -1.4620   -0.9180 c         1 MOL      0.641434
    105 O16         4.2120   -1.2400    0.2490 o         1 MOL     -0.479823
    106 C34         1.8250   -0.9900   -2.2580 c3        1 MOL     -0.301222
    107 C35         0.3710   -1.5180   -2.6340 c         1 MOL      0.741817
    108 O17        -0.5980   -1.2230   -1.9160 o         1 MOL     -0.681850
    109 O18         0.2110   -2.1690   -3.6990 o         1 MOL     -0.681850
    110 H47         1.3780   -1.1080    0.2510 hn        1 MOL      0.256208
    111 H48         2.6440   -2.9550   -1.6980 h1        1 MOL      0.077671
    112 H49         2.3360   -0.7690   -3.1890 hc        1 MOL      0.071971
    113 H50         1.7330   -0.0380   -1.7390 hc        1 MOL      0.071971
    114 N11         5.0030   -1.4940   -1.8260 n         1 MOL     -0.790062
    115 C36         6.4360   -1.2670   -1.4770 c3        1 MOL      0.430794
    116 C37         6.7460    0.2440   -1.2190 c         1 MOL      0.286604
    117 O19         7.4050    0.3520   -0.2200 o         1 MOL     -0.469080
    118 C38         7.3870   -1.9160   -2.5500 c3        1 MOL     -0.350255
    119 C39         8.8280   -1.8100   -2.1160 ca        1 MOL      0.109495
    120 C40         9.7400   -1.0900   -2.8920 ca        1 MOL     -0.114267
    121 C41         9.2740   -2.5580   -1.0020 ca        1 MOL     -0.114267
    122 C42        11.0860   -1.1290   -2.6270 ca        1 MOL     -0.154840
    123 C43        10.6520   -2.5910   -0.7340 ca        1 MOL     -0.154840
    124 C44        11.5270   -1.8440   -1.4810 ca        1 MOL     -0.075358
    125 H51         4.8550   -1.8790   -2.7410 hn        1 MOL      0.358067
    126 H52         6.7470   -1.6790   -0.5150 h1        1 MOL      0.062714
    127 H53         7.1580   -1.4240   -3.4960 hc        1 MOL      0.100741
    128 H54         7.1860   -2.9840   -2.5890 hc        1 MOL      0.100741
    129 H55         9.3530   -0.5180   -3.7250 ha        1 MOL      0.107182
    130 H56         8.5990   -3.0760   -0.3330 ha        1 MOL      0.107182
    131 H57        11.8000   -0.6910   -3.3170 ha        1 MOL      0.115250
    132 H58        10.9750   -3.2130    0.0950 ha        1 MOL      0.115250
    133 H59        12.5720   -1.8310   -1.2070 ha        1 MOL      0.090164
    134 N12         6.2670    1.2780   -1.8950 n         1 MOL     -0.091781
    135 C45         6.5060    2.6580   -1.4650 c3        1 MOL     -0.137834
    136 C46         5.9600    2.8910    0.0010 c         1 MOL      0.342885
    137 O20         6.5430    3.5010    0.8610 o         1 MOL     -0.475641
    138 C47         5.7260    3.5250   -2.4040 c3        1 MOL      0.256340
    139 C48         5.3750    2.7580   -3.6650 c3        1 MOL     -0.303475
    140 C49         5.3120    1.3590   -3.0770 c3        1 MOL      0.062397
    141 H60         7.5640    2.8870   -1.6360 h1        1 MOL      0.097441
    142 H61         4.8940    4.0370   -1.9300 hc        1 MOL     -0.026551
    143 H62         6.3800    4.3320   -2.7110 hc        1 MOL     -0.026551
    144 H63         4.4020    3.0900   -4.0240 hc        1 MOL      0.100145
    145 H64         6.1770    2.7290   -4.3940 hc        1 MOL      0.100145
    146 H65         4.3060    1.0790   -2.7740 h1        1 MOL      0.035042
    147 H66         5.6120    0.6250   -3.8310 h1        1 MOL      0.035042
    148 N13         4.7910    2.2590    0.3080 n         1 MOL     -0.044439
    149 C50         4.1520    2.1970    1.6090 c3        1 MOL     -0.224875
    150 C51         4.9160    1.4520    2.7560 c         1 MOL      0.488435
    151 O21         4.9100    1.8800    3.9010 o         1 MOL     -0.572107
    152 C52         2.7250    1.5690    1.5550 c3        1 MOL      0.001292
    153 C53         1.8550    2.1110    0.4100 c3        1 MOL     -0.127685
    154 C54         0.3980    1.6490    0.4180 c         1 MOL      0.704765
    155 O22        -0.5510    2.2930   -0.1050 o         1 MOL     -0.787481
    156 O23         0.1570    0.5300    0.8950 o         1 MOL     -0.787481
    157 H67         4.3340    1.6150   -0.3300 hn        1 MOL      0.108301
    158 H68         3.9850    3.2200    1.9220 h1        1 MOL      0.114360
    159 H69         2.2820    1.7810    2.5310 hc        1 MOL      0.042089
    160 H70         2.9210    0.4930    1.5420 hc        1 MOL      0.042089
    161 H71         2.3050    1.8720   -0.5540 hc        1 MOL      0.061977
    162 H72         1.8750    3.1980    0.4660 hc        1 MOL      0.061977
    163 N14         5.5510    0.3630    2.4440 n         1 MOL      0.049926
    164 C55         6.5000   -0.2990    3.3180 c3        1 MOL     -0.328365
    165 H73         7.3290    0.3760    3.5310 h1        1 MOL      0.108007
    166 H74         6.0060   -0.5740    4.2490 h1        1 MOL      0.108007
    167 H75         6.8800   -1.1960    2.8290 h1        1 MOL      0.108007
    168 H76         5.4800    0.1040    1.4620 hn        1 MOL      0.055155
    169 Ca1        -2.1290    0.0380   -0.2490 Ca        1 MOL      1.630017
    170 O24        -1.6560   -0.2840    2.7650 oh        1 MOL     -0.686955
    171 H77        -0.7530   -0.1610    2.4530 ho        1 MOL      0.341712
    172 H78        -1.6260   -0.0640    3.6950 ho        1 MOL      0.341712
    173 O25        -4.3180   -0.8840    1.2670 oh        1 MOL     -0.686955
    174 H79        -4.5880   -0.0660    1.6780 ho        1 MOL      0.341712
    175 H80        -4.1380   -1.4730    1.9980 ho        1 MOL      0.341712
@<TRIPOS>BOND
     1    1    2 1   
     2    1    4 1   
     3    1    5 1   
     4    1    6 1   
     5    2    3 2   
     6    2    7 1   
     7    7    8 1   
     8    7   15 1   
     9    8    9 1   
    10    8   11 1   
    11    8   16 1   
    12    9   10 2   
    13    9   19 1   
    14   11   12 1   
    15   11   17 1   
    16   11   18 1   
    17   12   13 1   
    18   12   14 1   
    19   19   20 1   
    20   19   24 1   
    21   20   21 1   
    22   20   23 1   
    23   20   25 1   
    24   21   22 2   
    25   21   29 1   
    26   23   26 1   
    27   23   27 1   
    28   23   28 1   
    29   29   30 1   
    30   29   37 1   
    31   30   31 1   
    32   30   33 1   
    33   30   38 1   
    34   31   32 2   
    35   31   41 1   
    36   33   34 1   
    37   33   39 1   
    38   33   40 1   
    39   34   35 1   
    40   34   36 1   
    41   41   42 1   
    42   41   45 1   
    43   42   43 1   
    44   42   46 1   
    45   42   47 1   
    46   43   44 2   
    47   43   48 1   
    48   48   49 1   
    49   48   56 1   
    50   49   50 1   
    51   49   52 1   
    52   49   57 1   
    53   50   51 2   
    54   50   62 1   
    55   52   53 1   
    56   52   58 1   
    57   52   59 1   
    58   53   54 1   
    59   53   55 2   
    60   54   60 1   
    61   54   61 1   
    62   62   63 1   
    63   62   66 1   
    64   63   64 1   
    65   63   67 1   
    66   63   68 1   
    67   64   65 2   
    68   64   69 1   
    69   69   70 1   
    70   69   76 1   
    71   70   71 1   
    72   70   73 1   
    73   70   77 1   
    74   71   72 2   
    75   71   83 1   
    76   73   74 1   
    77   73   75 1   
    78   73   78 1   
    79   74   80 1   
    80   74   81 1   
    81   74   82 1   
    82   75   79 1   
    83   83   84 1   
    84   83   91 1   
    85   84   85 1   
    86   84   87 1   
    87   84   92 1   
    88   85   86 2   
    89   85  102 1   
    90   87   88 1   
    91   87   89 1   
    92   87   93 1   
    93   88   90 1   
    94   88   94 1   
    95   88   95 1   
    96   89   96 1   
    97   89   97 1   
    98   89   98 1   
    99   90   99 1   
   100   90  100 1   
   101   90  101 1   
   102  102  103 1   
   103  102  110 1   
   104  103  104 1   
   105  103  106 1   
   106  103  111 1   
   107  104  105 2   
   108  104  114 1   
   109  106  107 1   
   110  106  112 1   
   111  106  113 1   
   112  107  108 1   
   113  107  109 1   
   114  114  115 1   
   115  114  125 1   
   116  115  116 1   
   117  115  118 1   
   118  115  126 1   
   119  116  117 2   
   120  116  134 1   
   121  118  119 1   
   122  118  127 1   
   123  118  128 1   
   124  119  120 ar  
   125  119  121 ar  
   126  120  122 ar  
   127  120  129 1   
   128  121  123 ar  
   129  121  130 1   
   130  122  124 ar  
   131  122  131 1   
   132  123  124 ar  
   133  123  132 1   
   134  124  133 1   
   135  134  135 1   
   136  134  140 1   
   137  135  136 1   
   138  135  138 1   
   139  135  141 1   
   140  136  137 2   
   141  136  148 1   
   142  138  139 1   
   143  138  142 1   
   144  138  143 1   
   145  139  140 1   
   146  139  144 1   
   147  139  145 1   
   148  140  146 1   
   149  140  147 1   
   150  148  149 1   
   151  148  157 1   
   152  149  150 1   
   153  149  152 1   
   154  149  158 1   
   155  150  151 2   
   156  150  163 1   
   157  152  153 1   
   158  152  159 1   
   159  152  160 1   
   160  153  154 1   
   161  153  161 1   
   162  153  162 1   
   163  154  155 1   
   164  154  156 1   
   165  163  164 1   
   166  163  168 1   
   167  164  165 1   
   168  164  166 1   
   169  164  167 1   
   170  170  171 1   
   171  170  172 1   
   172  173  174 1   
   173  173  175 1   
@<TRIPOS>SUBSTRUCTURE
     1 MOL         1 TEMP              0 ****  ****    0 ROOT
