@<TRIPOS>MOLECULE
MOL
  189   185     1     0     0
SMALL
resp


@<TRIPOS>ATOM
      1 C1         -0.0320   -3.5960    5.9960 c3        1 MOL     -0.380067
      2 C2          0.7500   -3.2460    4.7490 c         1 MOL      0.705417
      3 O1          0.8480   -2.0660    4.4320 o         1 MOL     -0.618510
      4 H1         -1.0570   -3.2400    5.8940 hc        1 MOL      0.097151
      5 H2         -0.0360   -4.6780    6.1310 hc        1 MOL      0.097151
      6 H3          0.4320   -3.1240    6.8620 hc        1 MOL      0.097151
      7 N1          1.2080   -4.2780    3.9990 n         1 MOL     -0.597153
      8 C3          1.7740   -3.8830    2.6510 c3        1 MOL      0.160308
      9 C4          1.6880   -5.0120    1.5630 c         1 MOL      0.487180
     10 O2          1.7350   -6.2000    1.9160 o         1 MOL     -0.582462
     11 C5          3.2750   -3.5120    2.9110 c3        1 MOL     -0.206822
     12 C6          4.0460   -3.1670    1.5950 c         1 MOL      0.715451
     13 O3          5.1670   -3.6980    1.4640 o         1 MOL     -0.666331
     14 O4          3.5370   -2.4340    0.7140 o         1 MOL     -0.666331
     15 H4          1.0430   -5.2280    4.2920 hn        1 MOL      0.337093
     16 H5          1.3180   -2.9650    2.2860 h1        1 MOL      0.106292
     17 H6          3.8630   -4.2150    3.4940 hc        1 MOL      0.045635
     18 H7          3.3740   -2.6800    3.6000 hc        1 MOL      0.045635
     19 N2          1.5730   -4.5970    0.3000 n         1 MOL     -0.238829
     20 C7          1.3280   -5.4680   -0.8770 c3        1 MOL     -0.139018
     21 C8          2.1470   -5.0140   -2.0430 c         1 MOL      0.639586
     22 O5          2.2230   -5.7520   -2.9850 o         1 MOL     -0.594281
     23 C9         -0.2440   -5.4580   -1.2070 c3        1 MOL      0.381090
     24 C10        -1.1480   -5.7270    0.0490 c3        1 MOL     -0.118019
     25 C11        -0.5600   -6.5120   -2.3340 c3        1 MOL     -0.428509
     26 C12        -2.6610   -5.5000   -0.2450 c3        1 MOL     -0.095874
     27 H8          1.4420   -3.6160    0.1220 hn        1 MOL      0.050897
     28 H9          1.4920   -6.5040   -0.5730 h1        1 MOL      0.088642
     29 H10        -0.4880   -4.4920   -1.6510 hc        1 MOL     -0.029364
     30 H11        -0.8500   -5.0860    0.8910 hc        1 MOL      0.019280
     31 H12        -1.0470   -6.7620    0.3610 hc        1 MOL      0.019280
     32 H13         0.0150   -7.4380   -2.2330 hc        1 MOL      0.090965
     33 H14        -1.6220   -6.7310   -2.3620 hc        1 MOL      0.090965
     34 H15        -0.3620   -5.9720   -3.2530 hc        1 MOL      0.090965
     35 H16        -3.2010   -5.9540    0.5860 hc        1 MOL      0.033850
     36 H17        -2.8760   -4.4350   -0.1470 hc        1 MOL      0.033850
     37 H18        -3.0680   -5.8350   -1.2020 hc        1 MOL      0.033850
     38 N3          2.8970   -3.8980   -1.9110 n         1 MOL     -0.422305
     39 C13         3.7620   -3.5120   -3.0140 c3        1 MOL      0.025763
     40 C14         5.2040   -3.0480   -2.6340 c         1 MOL      0.351793
     41 O6          6.0210   -2.8340   -3.5150 o         1 MOL     -0.544751
     42 C15         3.0200   -2.4380   -3.8780 c3        1 MOL     -0.186799
     43 C16         2.6720   -1.2130   -2.9750 c         1 MOL      0.764197
     44 O7          3.3580   -0.9960   -1.9510 o         1 MOL     -0.722144
     45 O8          1.7110   -0.4640   -3.4050 o         1 MOL     -0.722144
     46 H19         2.9520   -3.3800   -1.0490 hn        1 MOL      0.333005
     47 H20         3.9920   -4.3850   -3.6250 h1        1 MOL      0.088871
     48 H21         2.0990   -2.9010   -4.2360 hc        1 MOL      0.050207
     49 H22         3.5630   -2.2110   -4.7900 hc        1 MOL      0.050207
     50 N4          5.5070   -2.9130   -1.3620 n         1 MOL     -0.122680
     51 C17         6.8800   -2.5740   -0.9020 c3        1 MOL     -0.007089
     52 C18         7.3890   -1.2740   -1.3040 c         1 MOL      0.361568
     53 O9          8.5960   -1.2340   -1.5270 o         1 MOL     -0.577366
     54 H23         4.7740   -3.1030   -0.7020 hn        1 MOL      0.070529
     55 H24         7.6270   -3.3040   -1.1930 h1        1 MOL      0.058124
     56 H25         6.7780   -2.6980    0.1830 h1        1 MOL      0.058124
     57 N5          6.5600   -0.2420   -1.5370 n         1 MOL     -0.116902
     58 C19         6.9760    1.0400   -2.0730 c3        1 MOL     -0.013274
     59 C20         7.4790    2.0610   -0.9830 c         1 MOL      0.436753
     60 O10         8.1140    3.0730   -1.2850 o         1 MOL     -0.526970
     61 C21         5.8150    1.6960   -2.9100 c3        1 MOL     -0.340252
     62 C22         4.4980    1.9950   -2.1660 c         1 MOL      0.843557
     63 O11         4.4120    1.5130   -1.0490 o         1 MOL     -0.743434
     64 O12         3.5750    2.6580   -2.6870 o         1 MOL     -0.743434
     65 H26         5.5680   -0.4560   -1.4580 hn        1 MOL      0.276289
     66 H27         7.8000    0.8710   -2.7650 h1        1 MOL      0.099392
     67 H28         5.5220    0.9780   -3.6780 hc        1 MOL      0.083989
     68 H29         6.3080    2.5670   -3.3460 hc        1 MOL      0.083989
     69 N6          7.1520    1.8080    0.3090 n         1 MOL     -0.373730
     70 C23         7.4240    2.8720    1.2990 c3        1 MOL      0.009013
     71 C24         6.2790    3.8590    1.5610 c         1 MOL      0.457046
     72 O13         6.5070    4.7820    2.2930 o         1 MOL     -0.578246
     73 H30         6.4930    1.0970    0.5960 hn        1 MOL      0.193337
     74 H31         8.2650    3.5450    1.1410 h1        1 MOL      0.063101
     75 H32         7.6560    2.3970    2.2600 h1        1 MOL      0.063101
     76 N7          5.0660    3.6560    1.0280 n         1 MOL     -0.290459
     77 C25         3.8380    4.4260    1.3140 c3        1 MOL      0.025174
     78 C26         2.7000    3.4560    1.6240 c         1 MOL      0.507983
     79 O14         2.8820    2.2380    1.6650 o         1 MOL     -0.580861
     80 C27         3.4090    5.2800    0.1930 c3        1 MOL     -0.085208
     81 C28         4.4960    6.2790   -0.2100 c3        1 MOL     -0.262700
     82 C29         3.8890    7.2780   -1.2040 c         1 MOL      0.601433
     83 N8          3.7130    7.0020   -2.4940 n         1 MOL     -0.743925
     84 O15         3.5420    8.4180   -0.8060 o         1 MOL     -0.590530
     85 H33         5.0130    2.9280    0.3290 hn        1 MOL      0.287907
     86 H34         3.9780    4.9850    2.2320 h1        1 MOL      0.079999
     87 H35         2.5560    5.8720    0.5050 hc        1 MOL      0.077334
     88 H36         3.1980    4.7270   -0.7150 hc        1 MOL      0.077334
     89 H37         5.3230    5.8570   -0.7820 hc        1 MOL      0.114170
     90 H38         4.7240    6.8660    0.6800 hc        1 MOL      0.114170
     91 H39         3.9250    6.1220   -2.9380 hn        1 MOL      0.350522
     92 H40         3.2340    7.6740   -3.0820 hn        1 MOL      0.350522
     93 N9          1.4610    3.9000    1.8920 n         1 MOL     -0.418584
     94 C30         0.2670    3.0060    1.9660 c3        1 MOL      0.138052
     95 C31        -0.7070    3.2350    0.7920 c         1 MOL      0.353176
     96 O16        -1.1210    4.3830    0.6840 o         1 MOL     -0.567116
     97 C32        -0.3980    3.2300    3.2870 c3        1 MOL      0.244102
     98 C33        -1.6560    2.3370    3.6160 c3        1 MOL     -0.134671
     99 C34         0.5450    3.2970    4.5460 c3        1 MOL     -0.134671
    100 H41         1.3290    4.8900    1.9440 hn        1 MOL      0.241720
    101 H42         0.5680    1.9560    2.0230 h1        1 MOL     -0.009781
    102 H43        -0.8580    4.2150    3.3050 hc        1 MOL     -0.042774
    103 H44        -2.4060    2.5700    2.8700 hc        1 MOL      0.014109
    104 H45        -1.3750    1.2880    3.5740 hc        1 MOL      0.014109
    105 H46        -2.0520    2.4760    4.6290 hc        1 MOL      0.014109
    106 H47        -0.1780    3.5160    5.3420 hc        1 MOL      0.014109
    107 H48         1.0620    2.3490    4.6980 hc        1 MOL      0.014109
    108 H49         1.3820    3.9850    4.5760 hc        1 MOL      0.014109
    109 N10        -1.1580    2.2820   -0.0210 n         1 MOL     -0.197160
    110 C35        -2.3030    2.4090   -1.0030 c3        1 MOL      0.057399
    111 C36        -3.7020    2.2090   -0.3210 c         1 MOL      0.459799
    112 O17        -3.8970    1.6580    0.7610 o         1 MOL     -0.360695
    113 C37        -2.1490    1.3470   -2.1400 c3        1 MOL     -0.363503
    114 C38        -3.1630    1.4530   -3.2350 c         1 MOL      0.783974
    115 N11        -3.3760    2.6430   -3.7380 n         1 MOL     -0.795476
    116 O18        -3.8810    0.5170   -3.4940 o         1 MOL     -0.571038
    117 H50        -0.6640    1.4030   -0.0230 hn        1 MOL      0.278804
    118 H51        -2.2920    3.4360   -1.3750 h1        1 MOL      0.045619
    119 H52        -2.2150    0.3630   -1.6720 hc        1 MOL      0.125165
    120 H53        -1.1410    1.4120   -2.5650 hc        1 MOL      0.125165
    121 H54        -2.7170    3.3750   -3.5080 hn        1 MOL      0.354197
    122 H55        -4.0920    2.8520   -4.4320 hn        1 MOL      0.354197
    123 N12        -4.6560    2.6940   -1.0750 n         1 MOL     -0.557956
    124 C39        -5.9950    2.5390   -0.6140 c3        1 MOL      0.442816
    125 C40        -6.5070    1.1300   -0.3560 c         1 MOL      0.583304
    126 O19        -7.3120    0.9190    0.4910 o         1 MOL     -0.535787
    127 C41        -6.8290    3.1550   -1.6530 c3        1 MOL     -0.125079
    128 C42        -8.2910    3.1930   -1.3840 ca        1 MOL      0.217030
    129 C43        -8.8510    3.9300   -0.3330 ca        1 MOL     -0.413655
    130 C44        -9.1540    2.4390   -2.2220 ca        1 MOL     -0.413655
    131 C45       -10.1980    3.8310    0.0790 ca        1 MOL      0.039802
    132 C46       -10.5350    2.3850   -1.8400 ca        1 MOL      0.039802
    133 C47       -11.0420    3.1180   -0.7290 ca        1 MOL      0.058992
    134 O20       -12.3320    2.9130   -0.3650 oh        1 MOL     -0.495746
    135 H56        -4.5920    3.0700   -2.0180 hn        1 MOL      0.256652
    136 H57        -6.1660    2.9790    0.3690 h1        1 MOL     -0.076426
    137 H58        -6.6720    2.7180   -2.6440 hc        1 MOL      0.020594
    138 H59        -6.4800    4.1820   -1.7140 hc        1 MOL      0.020594
    139 H60        -8.2900    4.4580    0.4230 ha        1 MOL      0.180333
    140 H61        -8.8710    2.0430   -3.1830 ha        1 MOL      0.180333
    141 H62       -10.5820    4.2770    0.9750 ha        1 MOL      0.083568
    142 H63       -11.1660    1.8200   -2.5170 ha        1 MOL      0.083568
    143 H64       -12.8890    2.3480   -0.8930 ho        1 MOL      0.386311
    144 N13        -5.9180    0.1590   -1.0680 n         1 MOL     -0.346557
    145 C48        -6.0600   -1.2520   -0.8180 c3        1 MOL     -0.155580
    146 C49        -5.3550   -1.8750    0.4340 c         1 MOL      0.488475
    147 O21        -5.7760   -2.9350    0.9250 o         1 MOL     -0.491727
    148 C50        -5.5840   -1.9810   -2.0810 c3        1 MOL      0.133694
    149 C51        -5.8340   -3.4560   -2.3130 c3        1 MOL     -0.185639
    150 C52        -7.2200   -3.9990   -1.9850 c         1 MOL      0.720979
    151 O22        -8.2030   -3.2230   -2.0050 o         1 MOL     -0.743514
    152 O23        -7.3010   -5.2460   -1.8620 o         1 MOL     -0.743514
    153 H65        -5.3340    0.5080   -1.8100 hn        1 MOL      0.158002
    154 H66        -7.1240   -1.4320   -0.6910 h1        1 MOL      0.127068
    155 H67        -4.5010   -1.8610   -2.1040 hc        1 MOL      0.011386
    156 H68        -6.0350   -1.4600   -2.9280 hc        1 MOL      0.011386
    157 H69        -5.0900   -4.0220   -1.7560 hc        1 MOL      0.005492
    158 H70        -5.7350   -3.5140   -3.3990 hc        1 MOL      0.005492
    159 N14        -4.3390   -1.1880    0.9730 n         1 MOL     -0.250028
    160 C53        -3.5580   -1.6040    2.1750 c3        1 MOL     -0.335021
    161 C54        -4.0550   -1.0550    3.5070 c         1 MOL      0.649961
    162 O24        -4.0570   -1.7020    4.5540 o         1 MOL     -0.578932
    163 C55        -2.1750   -1.1080    1.9710 c3        1 MOL      0.175216
    164 C56        -1.5050   -1.7890    0.8120 c3        1 MOL     -0.120135
    165 C57        -0.1720   -1.1520    0.4810 c         1 MOL      0.580815
    166 O25         0.7110   -1.7960   -0.1300 o         1 MOL     -0.678352
    167 O26         0.1560   -0.0190    0.8480 o         1 MOL     -0.678352
    168 H71        -4.0810   -0.2930    0.5970 hn        1 MOL      0.159175
    169 H72        -3.4050   -2.6780    2.1010 h1        1 MOL      0.127550
    170 H73        -1.5500   -1.2180    2.8480 hc        1 MOL      0.028379
    171 H74        -2.2580   -0.0360    1.7770 hc        1 MOL      0.028379
    172 H75        -2.0280   -1.8140   -0.1450 hc        1 MOL      0.061010
    173 H76        -1.2840   -2.8070    1.1530 hc        1 MOL      0.061010
    174 N15        -4.4570    0.2350    3.4810 n         1 MOL     -0.261515
    175 C58        -4.9400    0.9410    4.7100 c3        1 MOL     -0.045588
    176 H77        -6.0270    1.0060    4.6880 h1        1 MOL      0.052424
    177 H78        -4.6270    0.3870    5.5950 h1        1 MOL      0.052424
    178 H79        -4.5180    1.9460    4.7430 h1        1 MOL      0.052424
    179 H80        -4.1620    0.7010    2.6260 hn        1 MOL      0.084880
    180 Ca1         2.6930    0.0380    0.3860 Ca        1 MOL      1.768570
    181 O27         2.3810   -0.5040    3.0050 oh        1 MOL     -0.960516
    182 H81         1.8220   -1.1040    3.4950 ho        1 MOL      0.451075
    183 H82         2.3810    0.3000    3.5340 ho        1 MOL      0.451075
    184 O28         1.5270    1.5100   -1.5800 oh        1 MOL     -0.960516
    185 H83         1.5480    0.7480   -2.1570 ho        1 MOL      0.451075
    186 H84         2.0310    2.1790   -2.0400 ho        1 MOL      0.451075
    187 O29         4.9640    0.1940    1.8710 oh        1 MOL     -0.960516
    188 H85         5.8160   -0.2290    1.9590 ho        1 MOL      0.451075
    189 H86         4.8270    0.6290    2.7130 ho        1 MOL      0.451075
@<TRIPOS>BOND
     1    1    2 1   
     2    1    4 1   
     3    1    5 1   
     4    1    6 1   
     5    2    3 2   
     6    2    7 1   
     7    7    8 1   
     8    7   15 1   
     9    8    9 1   
    10    8   11 1   
    11    8   16 1   
    12    9   10 2   
    13    9   19 1   
    14   11   12 1   
    15   11   17 1   
    16   11   18 1   
    17   12   13 1   
    18   12   14 1   
    19   19   20 1   
    20   19   27 1   
    21   20   21 1   
    22   20   23 1   
    23   20   28 1   
    24   21   22 2   
    25   21   38 1   
    26   23   24 1   
    27   23   25 1   
    28   23   29 1   
    29   24   26 1   
    30   24   30 1   
    31   24   31 1   
    32   25   32 1   
    33   25   33 1   
    34   25   34 1   
    35   26   35 1   
    36   26   36 1   
    37   26   37 1   
    38   38   39 1   
    39   38   46 1   
    40   39   40 1   
    41   39   42 1   
    42   39   47 1   
    43   40   41 2   
    44   40   50 1   
    45   42   43 1   
    46   42   48 1   
    47   42   49 1   
    48   43   44 1   
    49   43   45 1   
    50   50   51 1   
    51   50   54 1   
    52   51   52 1   
    53   51   55 1   
    54   51   56 1   
    55   52   53 2   
    56   52   57 1   
    57   57   58 1   
    58   57   65 1   
    59   58   59 1   
    60   58   61 1   
    61   58   66 1   
    62   59   60 2   
    63   59   69 1   
    64   61   62 1   
    65   61   67 1   
    66   61   68 1   
    67   62   63 1   
    68   62   64 1   
    69   69   70 1   
    70   69   73 1   
    71   70   71 1   
    72   70   74 1   
    73   70   75 1   
    74   71   72 2   
    75   71   76 1   
    76   76   77 1   
    77   76   85 1   
    78   77   78 1   
    79   77   80 1   
    80   77   86 1   
    81   78   79 2   
    82   78   93 1   
    83   80   81 1   
    84   80   87 1   
    85   80   88 1   
    86   81   82 1   
    87   81   89 1   
    88   81   90 1   
    89   82   83 1   
    90   82   84 2   
    91   83   91 1   
    92   83   92 1   
    93   93   94 1   
    94   93  100 1   
    95   94   95 1   
    96   94   97 1   
    97   94  101 1   
    98   95   96 2   
    99   95  109 1   
   100   97   98 1   
   101   97   99 1   
   102   97  102 1   
   103   98  103 1   
   104   98  104 1   
   105   98  105 1   
   106   99  106 1   
   107   99  107 1   
   108   99  108 1   
   109  109  110 1   
   110  109  117 1   
   111  110  111 1   
   112  110  113 1   
   113  110  118 1   
   114  111  112 2   
   115  111  123 1   
   116  113  114 1   
   117  113  119 1   
   118  113  120 1   
   119  114  115 1   
   120  114  116 2   
   121  115  121 1   
   122  115  122 1   
   123  123  124 1   
   124  123  135 1   
   125  124  125 1   
   126  124  127 1   
   127  124  136 1   
   128  125  126 2   
   129  125  144 1   
   130  127  128 1   
   131  127  137 1   
   132  127  138 1   
   133  128  129 ar  
   134  128  130 ar  
   135  129  131 ar  
   136  129  139 1   
   137  130  132 ar  
   138  130  140 1   
   139  131  133 ar  
   140  131  141 1   
   141  132  133 ar  
   142  132  142 1   
   143  133  134 1   
   144  134  143 1   
   145  144  145 1   
   146  144  153 1   
   147  145  146 1   
   148  145  148 1   
   149  145  154 1   
   150  146  147 2   
   151  146  159 1   
   152  148  149 1   
   153  148  155 1   
   154  148  156 1   
   155  149  150 1   
   156  149  157 1   
   157  149  158 1   
   158  150  151 1   
   159  150  152 1   
   160  159  160 1   
   161  159  168 1   
   162  160  161 1   
   163  160  163 1   
   164  160  169 1   
   165  161  162 2   
   166  161  174 1   
   167  163  164 1   
   168  163  170 1   
   169  163  171 1   
   170  164  165 1   
   171  164  172 1   
   172  164  173 1   
   173  165  166 1   
   174  165  167 1   
   175  174  175 1   
   176  174  179 1   
   177  175  176 1   
   178  175  177 1   
   179  175  178 1   
   180  181  182 1   
   181  181  183 1   
   182  184  185 1   
   183  184  186 1   
   184  187  188 1   
   185  187  189 1   
@<TRIPOS>SUBSTRUCTURE
     1 MOL         1 TEMP              0 ****  ****    0 ROOT
