@<TRIPOS>MOLECULE
MOL
  186   183     1     0     0
SMALL
resp


@<TRIPOS>ATOM
      1 C1         -0.3930    2.0710    6.0620 c3        1 MOL     -0.204121
      2 C2         -0.8980    2.0830    4.5850 c         1 MOL      0.761084
      3 O1         -0.1910    2.5140    3.7010 o         1 MOL     -0.634468
      4 H1          0.3710    1.3020    6.1780 hc        1 MOL      0.041870
      5 H2          0.0320    3.0440    6.3080 hc        1 MOL      0.041870
      6 H3         -1.2270    1.8590    6.7300 hc        1 MOL      0.041870
      7 N1         -2.1010    1.6920    4.2830 n         1 MOL     -0.603087
      8 C3         -2.6670    1.6810    2.9270 c3        1 MOL      0.003602
      9 C4         -2.9870    3.0820    2.5060 c         1 MOL      0.676565
     10 O2         -3.9630    3.7100    2.9250 o         1 MOL     -0.567936
     11 C5         -3.9510    0.7870    2.9060 c3        1 MOL     -0.473159
     12 C6         -4.6350    0.8120    1.5310 c         1 MOL      0.848534
     13 O3         -5.8280    0.4580    1.4550 o         1 MOL     -0.674735
     14 O4         -3.9370    1.0430    0.5250 o         1 MOL     -0.674735
     15 H4         -2.7200    1.3730    5.0190 hn        1 MOL      0.335091
     16 H5         -1.9570    1.2390    2.2330 h1        1 MOL      0.040387
     17 H6         -4.6740    1.3580    3.4860 hc        1 MOL      0.132339
     18 H7         -3.6800   -0.1590    3.3730 hc        1 MOL      0.132339
     19 N2         -2.2240    3.6530    1.5780 n         1 MOL     -0.351951
     20 C7         -2.4450    4.9420    0.9630 c3        1 MOL     -0.331635
     21 C8         -3.6940    4.9050    0.0530 c         1 MOL      0.691974
     22 O5         -4.4660    5.8260    0.1560 o         1 MOL     -0.603540
     23 C9         -1.1960    5.4380    0.2460 c3        1 MOL      0.373140
     24 C10        -0.0110    5.5290    1.3070 c3        1 MOL     -0.031129
     25 C11        -1.4570    6.8800   -0.3010 c3        1 MOL     -0.435696
     26 C12         1.2950    6.0280    0.7300 c3        1 MOL     -0.076799
     27 H8         -1.3800    3.2210    1.2260 hn        1 MOL      0.222487
     28 H9         -2.6850    5.7720    1.6330 h1        1 MOL      0.117232
     29 H10        -0.7910    4.7500   -0.5030 hc        1 MOL     -0.040570
     30 H11         0.3200    4.5750    1.7010 hc        1 MOL      0.030470
     31 H12        -0.3840    6.2570    2.0390 hc        1 MOL      0.030470
     32 H13        -2.3130    6.8970   -0.9810 hc        1 MOL      0.091527
     33 H14        -1.6630    7.4450    0.6110 hc        1 MOL      0.091527
     34 H15        -0.5840    7.3020   -0.8040 hc        1 MOL      0.091527
     35 H16         1.2300    7.0730    0.4550 hc        1 MOL      0.011019
     36 H17         2.0620    6.0220    1.5040 hc        1 MOL      0.011019
     37 H18         1.5280    5.4400   -0.1560 hc        1 MOL      0.011019
     38 N3         -3.9190    3.9020   -0.8000 n         1 MOL     -0.311873
     39 C13        -4.9060    4.1070   -1.9530 c3        1 MOL     -0.054642
     40 C14        -6.2160    3.3280   -1.8950 c         1 MOL      0.518010
     41 O6         -7.1150    3.6330   -2.6500 o         1 MOL     -0.583320
     42 C15        -4.1640    3.8310   -3.3560 c3        1 MOL     -0.151802
     43 C16        -3.2790    2.5880   -3.5340 c         1 MOL      0.785352
     44 O7         -3.3020    1.6820   -2.6870 o         1 MOL     -0.718573
     45 O8         -2.5810    2.5420   -4.5910 o         1 MOL     -0.718573
     46 H19        -3.3430    3.0710   -0.8190 hn        1 MOL      0.119818
     47 H20        -5.2680    5.1310   -1.9910 h1        1 MOL      0.104537
     48 H21        -3.4340    4.6040   -3.6250 hc        1 MOL      0.030732
     49 H22        -4.9020    3.7740   -4.1520 hc        1 MOL      0.030732
     50 N4         -6.4640    2.4520   -0.9450 n         1 MOL     -0.148979
     51 C17        -7.8260    2.0360   -0.4900 c3        1 MOL     -0.247641
     52 C18        -8.2300    0.6360   -0.9880 c         1 MOL      0.564523
     53 O9         -9.4100    0.2820   -1.0710 o         1 MOL     -0.610951
     54 H23        -5.7020    2.0230   -0.4380 hn        1 MOL      0.135021
     55 H24        -8.6180    2.6990   -0.8410 h1        1 MOL      0.116117
     56 H25        -7.7950    1.9720    0.5950 h1        1 MOL      0.116117
     57 N5         -7.2270   -0.1380   -1.3840 n         1 MOL     -0.231960
     58 C19        -7.4630   -1.5160   -1.8530 c3        1 MOL      0.032120
     59 C20        -7.4810   -2.5180   -0.6740 c         1 MOL      0.483808
     60 O10        -7.6380   -3.7070   -0.8520 o         1 MOL     -0.541062
     61 C21        -6.3670   -1.8960   -2.8750 c3        1 MOL     -0.336866
     62 C22        -4.9620   -1.7010   -2.4730 c         1 MOL      0.796441
     63 O11        -4.7200   -1.4710   -1.2470 o         1 MOL     -0.714622
     64 O12        -3.9740   -1.7180   -3.2720 o         1 MOL     -0.714622
     65 H26        -6.2820    0.1970   -1.2370 hn        1 MOL      0.159354
     66 H27        -8.4390   -1.5840   -2.3380 h1        1 MOL      0.102447
     67 H28        -6.5690   -1.2220   -3.7050 hc        1 MOL      0.091300
     68 H29        -6.5000   -2.9520   -3.1200 hc        1 MOL      0.091300
     69 N6         -7.2530   -1.9740    0.5380 n         1 MOL     -0.399044
     70 C23        -6.8380   -2.7110    1.7650 c3        1 MOL      0.115884
     71 C24        -5.5470   -3.4980    1.8300 c         1 MOL      0.373760
     72 O13        -5.4140   -4.3890    2.6260 o         1 MOL     -0.608258
     73 H30        -6.9750   -1.0050    0.5390 hn        1 MOL      0.273257
     74 H31        -7.6820   -3.2740    2.1620 h1        1 MOL      0.030717
     75 H32        -6.7380   -1.9690    2.5480 h1        1 MOL      0.030717
     76 N7         -4.6550   -3.2520    0.9070 n         1 MOL      0.186811
     77 C25        -3.3710   -3.9730    0.8400 c3        1 MOL      0.064529
     78 C26        -2.2520   -2.9680    1.0290 c         1 MOL      0.396380
     79 O14        -2.4300   -1.7480    1.0170 o         1 MOL     -0.645640
     80 C27        -3.2320   -4.6090   -0.5410 c3        1 MOL      0.193481
     81 C28        -4.4060   -5.2450   -1.2580 c3        1 MOL     -0.522695
     82 C29        -5.1430   -6.3420   -0.4600 c         1 MOL      0.710514
     83 N8         -6.3230   -6.1210   -0.0300 n         1 MOL     -0.782681
     84 O15        -4.6370   -7.3870   -0.2420 o         1 MOL     -0.638100
     85 H33        -4.8570   -2.5260    0.2320 hn        1 MOL     -0.108499
     86 H34        -3.3220   -4.7460    1.6050 h1        1 MOL      0.050501
     87 H35        -2.3620   -5.2660   -0.6500 hc        1 MOL     -0.004434
     88 H36        -3.0270   -3.7320   -1.1610 hc        1 MOL     -0.004434
     89 H37        -3.9700   -5.7380   -2.1250 hc        1 MOL      0.153487
     90 H38        -5.1080   -4.4550   -1.5300 hc        1 MOL      0.153487
     91 H39        -6.7060   -5.2080   -0.1990 hn        1 MOL      0.357544
     92 H40        -6.6420   -6.7890    0.6630 hn        1 MOL      0.357544
     93 N9         -1.0770   -3.4610    1.2820 n         1 MOL     -0.432407
     94 C30         0.0500   -2.6430    1.5060 c3        1 MOL     -0.014993
     95 C31         1.2350   -3.2170    0.8980 c         1 MOL      0.505271
     96 O16         1.4440   -4.4080    0.9920 o         1 MOL     -0.583651
     97 C32         0.1540   -2.4350    3.0400 c3        1 MOL      0.157720
     98 C33         1.5280   -1.8910    3.5130 c3        1 MOL     -0.259251
     99 C34        -0.8740   -1.3970    3.5340 c3        1 MOL     -0.259251
    100 H41        -1.0210   -4.4640    1.4160 hn        1 MOL      0.297443
    101 H42        -0.0270   -1.6860    1.0020 h1        1 MOL      0.130851
    102 H43        -0.0250   -3.3360    3.6310 hc        1 MOL      0.009487
    103 H44         1.5440   -1.7500    4.6020 hc        1 MOL      0.061600
    104 H45         2.3980   -2.4820    3.2210 hc        1 MOL      0.061600
    105 H46         1.6780   -0.9190    3.0300 hc        1 MOL      0.061600
    106 H47        -0.8150   -1.2440    4.6160 hc        1 MOL      0.061600
    107 H48        -0.7730   -0.4820    2.9440 hc        1 MOL      0.061600
    108 H49        -1.8930   -1.7130    3.3130 hc        1 MOL      0.061600
    109 N10         2.0330   -2.4300    0.1640 n         1 MOL     -0.412927
    110 C35         3.1620   -2.9180   -0.5990 c3        1 MOL      0.318282
    111 C36         4.4810   -2.2810   -0.0440 c         1 MOL      0.082755
    112 O17         4.3760   -1.3170    0.6660 o         1 MOL     -0.100019
    113 C37         2.8370   -2.5680   -2.1060 c3        1 MOL     -0.698488
    114 C38         3.4410   -1.2920   -2.6170 c         1 MOL      0.609086
    115 N11         2.6240   -0.2930   -2.6640 n         1 MOL     -0.699612
    116 O18         4.6100   -1.1630   -2.8810 o         1 MOL     -0.517983
    117 H50         1.8530   -1.4350    0.2000 hn        1 MOL      0.441986
    118 H51         3.2400   -4.0010   -0.5190 h1        1 MOL      0.037869
    119 H52         1.7730   -2.7230   -2.2740 hc        1 MOL      0.209224
    120 H53         3.2940   -3.4190   -2.6240 hc        1 MOL      0.209224
    121 H54         1.6510   -0.4710   -2.4790 hn        1 MOL      0.376044
    122 H55         2.9880    0.6090   -2.9340 hn        1 MOL      0.376044
    123 N12         5.6120   -2.8250   -0.4280 n         1 MOL     -0.332374
    124 C39         6.9270   -2.2960   -0.0520 c3        1 MOL      0.027110
    125 C40         6.9960   -0.7520    0.0540 c         1 MOL      0.723045
    126 O19         7.5590   -0.2160    0.9640 o         1 MOL     -0.585049
    127 C41         8.0570   -2.8220   -0.9490 c3        1 MOL     -0.066121
    128 C42         9.3910   -2.1930   -0.4950 ca        1 MOL     -0.091266
    129 C43        10.0250   -2.5670    0.7010 ca        1 MOL     -0.168551
    130 C44         9.9690   -1.2120   -1.3360 ca        1 MOL     -0.168551
    131 C45        11.2970   -2.0470    1.0510 ca        1 MOL     -0.178617
    132 C46        11.2650   -0.7820   -0.9830 ca        1 MOL     -0.178617
    133 C47        11.9260   -1.2270    0.2030 ca        1 MOL      0.326256
    134 O20        13.2570   -0.9560    0.4120 oh        1 MOL     -0.565538
    135 H56         5.5310   -3.6080   -1.0670 hn        1 MOL      0.253343
    136 H57         7.1500   -2.6440    0.9600 h1        1 MOL      0.034640
    137 H58         7.8600   -2.6560   -2.0080 hc        1 MOL      0.060448
    138 H59         8.1450   -3.9030   -0.8110 hc        1 MOL      0.060448
    139 H60         9.5550   -3.3470    1.2680 ha        1 MOL      0.124459
    140 H61         9.4690   -0.7770   -2.1860 ha        1 MOL      0.124459
    141 H62        11.8300   -2.4380    1.9080 ha        1 MOL      0.122333
    142 H63        11.7560   -0.1170   -1.6740 ha        1 MOL      0.122333
    143 H64        13.6560   -0.7950   -0.4480 ho        1 MOL      0.381022
    144 N13         6.4860    0.0070   -0.9190 n         1 MOL      0.044547
    145 C48         6.5520    1.4370   -0.8710 c3        1 MOL     -0.078612
    146 C49         5.6630    2.0580    0.1800 c         1 MOL      0.236823
    147 O21         6.0220    3.1050    0.7300 o         1 MOL     -0.484167
    148 C50         6.1000    1.9110   -2.2630 c3        1 MOL      0.202831
    149 C51         6.8630    1.4080   -3.4360 c3        1 MOL     -0.307170
    150 C52         8.2770    1.8860   -3.5560 c         1 MOL      0.778895
    151 O22         8.9580    1.2850   -4.3640 o         1 MOL     -0.744600
    152 O23         8.7020    2.8020   -2.8280 o         1 MOL     -0.744600
    153 H65         5.9960   -0.4310   -1.6870 hn        1 MOL     -0.027601
    154 H66         7.5640    1.8010   -0.7140 h1        1 MOL      0.118325
    155 H67         6.0170    2.9910   -2.3560 hc        1 MOL     -0.048925
    156 H68         5.0960    1.4940   -2.3860 hc        1 MOL     -0.048925
    157 H69         6.3350    1.6090   -4.3680 hc        1 MOL      0.048705
    158 H70         6.8010    0.3180   -3.4740 hc        1 MOL      0.048705
    159 N14         4.4800    1.4840    0.4800 n         1 MOL     -0.053535
    160 C53         3.6290    1.8820    1.5280 c3        1 MOL     -0.251495
    161 C54         4.1780    1.4870    2.9120 c         1 MOL      0.496036
    162 O24         3.8040    2.0240    3.9150 o         1 MOL     -0.573942
    163 C55         2.2580    1.2650    1.1990 c3        1 MOL      0.573382
    164 C56         1.6050    1.8880    0.0300 c3        1 MOL      0.217486
    165 C57         0.2590    1.0960   -0.3150 c         1 MOL      0.525727
    166 O25        -0.8710    1.6310   -0.2330 o         1 MOL     -0.658228
    167 O26         0.2860   -0.0560   -0.7530 o         1 MOL     -0.658228
    168 H71         4.1380    0.7060   -0.0650 hn        1 MOL      0.073154
    169 H72         3.4660    2.9540    1.4820 h1        1 MOL      0.112199
    170 H73         1.6350    1.3740    2.0790 hc        1 MOL     -0.162558
    171 H74         2.4300    0.1940    1.0420 hc        1 MOL     -0.162558
    172 H75         2.1910    1.8480   -0.8980 hc        1 MOL     -0.127756
    173 H76         1.4470    2.9430    0.2490 hc        1 MOL     -0.127756
    174 N15         4.9760    0.4640    2.9020 n         1 MOL      0.121233
    175 C58         5.6200   -0.0850    4.0340 c3        1 MOL     -0.597480
    176 H77         6.1030   -1.0230    3.7560 h1        1 MOL      0.169554
    177 H78         6.3700    0.6150    4.4010 h1        1 MOL      0.169554
    178 H79         4.8840   -0.2730    4.8160 h1        1 MOL      0.169554
    179 H80         5.0530   -0.0540    2.0300 hn        1 MOL     -0.121113
    180 Ca1        -2.3940   -0.1490   -1.1220 Ca        1 MOL      1.779475
    181 O27        -0.7430    0.7100   -3.3710 oh        1 MOL     -0.882464
    182 H81        -1.3970    1.4100   -3.4040 ho        1 MOL      0.407002
    183 H82         0.0240    1.0710   -3.8190 ho        1 MOL      0.407002
    184 O28        -1.0730   -2.4800   -2.2200 oh        1 MOL     -0.882464
    185 H83        -0.2390   -2.3460   -2.6580 ho        1 MOL      0.407002
    186 H84        -1.5630   -3.0640   -2.8000 ho        1 MOL      0.407002
@<TRIPOS>BOND
     1    1    2 1   
     2    1    4 1   
     3    1    5 1   
     4    1    6 1   
     5    2    3 2   
     6    2    7 1   
     7    7    8 1   
     8    7   15 1   
     9    8    9 1   
    10    8   11 1   
    11    8   16 1   
    12    9   10 2   
    13    9   19 1   
    14   11   12 1   
    15   11   17 1   
    16   11   18 1   
    17   12   13 1   
    18   12   14 1   
    19   19   20 1   
    20   19   27 1   
    21   20   21 1   
    22   20   23 1   
    23   20   28 1   
    24   21   22 2   
    25   21   38 1   
    26   23   24 1   
    27   23   25 1   
    28   23   29 1   
    29   24   26 1   
    30   24   30 1   
    31   24   31 1   
    32   25   32 1   
    33   25   33 1   
    34   25   34 1   
    35   26   35 1   
    36   26   36 1   
    37   26   37 1   
    38   38   39 1   
    39   38   46 1   
    40   39   40 1   
    41   39   42 1   
    42   39   47 1   
    43   40   41 2   
    44   40   50 1   
    45   42   43 1   
    46   42   48 1   
    47   42   49 1   
    48   43   44 1   
    49   43   45 1   
    50   50   51 1   
    51   50   54 1   
    52   51   52 1   
    53   51   55 1   
    54   51   56 1   
    55   52   53 2   
    56   52   57 1   
    57   57   58 1   
    58   57   65 1   
    59   58   59 1   
    60   58   61 1   
    61   58   66 1   
    62   59   60 2   
    63   59   69 1   
    64   61   62 1   
    65   61   67 1   
    66   61   68 1   
    67   62   63 1   
    68   62   64 1   
    69   69   70 1   
    70   69   73 1   
    71   70   71 1   
    72   70   74 1   
    73   70   75 1   
    74   71   72 2   
    75   71   76 1   
    76   76   77 1   
    77   76   85 1   
    78   77   78 1   
    79   77   80 1   
    80   77   86 1   
    81   78   79 2   
    82   78   93 1   
    83   80   81 1   
    84   80   87 1   
    85   80   88 1   
    86   81   82 1   
    87   81   89 1   
    88   81   90 1   
    89   82   83 1   
    90   82   84 2   
    91   83   91 1   
    92   83   92 1   
    93   93   94 1   
    94   93  100 1   
    95   94   95 1   
    96   94   97 1   
    97   94  101 1   
    98   95   96 2   
    99   95  109 1   
   100   97   98 1   
   101   97   99 1   
   102   97  102 1   
   103   98  103 1   
   104   98  104 1   
   105   98  105 1   
   106   99  106 1   
   107   99  107 1   
   108   99  108 1   
   109  109  110 1   
   110  109  117 1   
   111  110  111 1   
   112  110  113 1   
   113  110  118 1   
   114  111  112 2   
   115  111  123 1   
   116  113  114 1   
   117  113  119 1   
   118  113  120 1   
   119  114  115 1   
   120  114  116 2   
   121  115  121 1   
   122  115  122 1   
   123  123  124 1   
   124  123  135 1   
   125  124  125 1   
   126  124  127 1   
   127  124  136 1   
   128  125  126 2   
   129  125  144 1   
   130  127  128 1   
   131  127  137 1   
   132  127  138 1   
   133  128  129 ar  
   134  128  130 ar  
   135  129  131 ar  
   136  129  139 1   
   137  130  132 ar  
   138  130  140 1   
   139  131  133 ar  
   140  131  141 1   
   141  132  133 ar  
   142  132  142 1   
   143  133  134 1   
   144  134  143 1   
   145  144  145 1   
   146  144  153 1   
   147  145  146 1   
   148  145  148 1   
   149  145  154 1   
   150  146  147 2   
   151  146  159 1   
   152  148  149 1   
   153  148  155 1   
   154  148  156 1   
   155  149  150 1   
   156  149  157 1   
   157  149  158 1   
   158  150  151 1   
   159  150  152 1   
   160  159  160 1   
   161  159  168 1   
   162  160  161 1   
   163  160  163 1   
   164  160  169 1   
   165  161  162 2   
   166  161  174 1   
   167  163  164 1   
   168  163  170 1   
   169  163  171 1   
   170  164  165 1   
   171  164  172 1   
   172  164  173 1   
   173  165  166 1   
   174  165  167 1   
   175  174  175 1   
   176  174  179 1   
   177  175  176 1   
   178  175  177 1   
   179  175  178 1   
   180  181  182 1   
   181  181  183 1   
   182  184  185 1   
   183  184  186 1   
@<TRIPOS>SUBSTRUCTURE
     1 MOL         1 TEMP              0 ****  ****    0 ROOT
