@<TRIPOS>MOLECULE
MOL
  189   185     1     0     0
SMALL
resp


@<TRIPOS>ATOM
      1 C1         -0.8340    3.0770   -4.4170 c3        1 MOL     -0.447019
      2 C2         -0.0650    2.5540   -3.2200 c         1 MOL      0.666707
      3 O1         -0.5220    2.5510   -2.0920 o         1 MOL     -0.540109
      4 H1         -0.1970    3.0410   -5.3010 hc        1 MOL      0.115644
      5 H2         -1.7160    2.4590   -4.5810 hc        1 MOL      0.115644
      6 H3         -1.1400    4.1060   -4.2320 hc        1 MOL      0.115644
      7 N1          1.1390    2.0010   -3.4580 n         1 MOL     -0.713938
      8 C3          2.0990    1.6700   -2.4240 c3        1 MOL      0.560110
      9 C4          2.7550    2.9360   -1.8230 c         1 MOL      0.285857
     10 O2          3.9350    3.2080   -1.9050 o         1 MOL     -0.426045
     11 C5          3.0840    0.5190   -2.7530 c3        1 MOL     -0.480901
     12 C6          3.9970    0.0240   -1.6200 c         1 MOL      0.707923
     13 O3          3.5840    0.2580   -0.4520 o         1 MOL     -0.580886
     14 O4          5.0810   -0.4890   -1.9030 o         1 MOL     -0.580886
     15 H4          1.4260    1.9460   -4.4170 hn        1 MOL      0.340430
     16 H5          1.4980    1.2460   -1.6240 h1        1 MOL     -0.046436
     17 H6          3.6690    0.9570   -3.5660 hc        1 MOL      0.088653
     18 H7          2.5800   -0.4180   -3.0070 hc        1 MOL      0.088653
     19 N2          1.8960    3.7530   -1.1750 n         1 MOL     -0.263376
     20 C7          2.2130    5.0980   -0.5620 c3        1 MOL     -0.058164
     21 C8          3.1590    5.0470    0.6160 c         1 MOL      0.479744
     22 O5          3.7830    6.0630    0.9970 o         1 MOL     -0.578672
     23 C9          0.8500    5.8260   -0.1660 c3        1 MOL     -0.125635
     24 C10         0.1320    6.5560   -1.3730 c3        1 MOL      0.012239
     25 C11        -0.9450    7.5120   -0.8250 c3        1 MOL      0.190283
     26 C12        -1.6620    8.1430   -2.0020 c3        1 MOL     -0.190609
     27 N3         -2.3460    7.2030   -2.9250 n4        1 MOL     -0.251144
     28 H8          0.9360    3.4630   -1.1860 hn        1 MOL      0.251072
     29 H9          2.7830    5.6730   -1.2900 h1        1 MOL      0.111186
     30 H10         0.9610    6.5320    0.6650 hc        1 MOL      0.054842
     31 H11         0.1810    5.0620    0.2400 hc        1 MOL      0.054842
     32 H12        -0.1400    5.7330   -2.0330 hc        1 MOL     -0.008199
     33 H13         0.8930    7.1360   -1.8920 hc        1 MOL     -0.008199
     34 H14        -0.6210    8.2260   -0.0720 hc        1 MOL      0.013799
     35 H15        -1.6940    6.9750   -0.2530 hc        1 MOL      0.013799
     36 H16        -0.9610    8.8210   -2.4930 hx        1 MOL      0.119209
     37 H17        -2.3880    8.8220   -1.5680 hx        1 MOL      0.119209
     38 H18        -2.5950    6.2940   -2.5600 hn        1 MOL      0.309809
     39 H19        -3.1690    7.6460   -3.2940 hn        1 MOL      0.309809
     40 H20        -1.8340    7.1190   -3.7880 hn        1 MOL      0.309809
     41 N4          3.2480    3.9310    1.3030 n         1 MOL     -0.221049
     42 C13         4.2410    3.7140    2.4210 c3        1 MOL      0.065783
     43 C14         5.4450    2.9690    1.9150 c         1 MOL      0.380780
     44 O6          6.4580    2.9000    2.6120 o         1 MOL     -0.522194
     45 C15         3.6260    3.0720    3.7080 c3        1 MOL     -0.386712
     46 C16         2.5520    1.9910    3.3500 c         1 MOL      0.875759
     47 O7          2.7080    1.1990    2.3590 o         1 MOL     -0.756647
     48 O8          1.5680    1.7830    4.1270 o         1 MOL     -0.756647
     49 H21         2.7450    3.0930    1.0410 hn        1 MOL      0.150127
     50 H22         4.5960    4.7190    2.6510 h1        1 MOL      0.115291
     51 H23         3.1290    3.8540    4.2790 hc        1 MOL      0.108586
     52 H24         4.4380    2.6450    4.2940 hc        1 MOL      0.108586
     53 N5          5.4880    2.4800    0.6460 n         1 MOL      0.028974
     54 C17         6.5900    1.9220   -0.0510 c3        1 MOL     -0.164381
     55 C18         7.2450    0.6790    0.5260 c         1 MOL      0.560438
     56 O9          8.4770    0.7090    0.7330 o         1 MOL     -0.574505
     57 H25         4.5950    2.5500    0.1730 hn        1 MOL     -0.032771
     58 H26         7.3980    2.6450    0.0160 h1        1 MOL      0.073689
     59 H27         6.3070    1.7260   -1.0780 h1        1 MOL      0.073689
     60 N6          6.4760   -0.3920    0.8450 n         1 MOL     -0.250816
     61 C19         6.9250   -1.6340    1.4690 c3        1 MOL      0.059681
     62 C20         7.0590   -2.8430    0.5590 c         1 MOL      0.358896
     63 O10         7.5710   -3.8990    0.9650 o         1 MOL     -0.537802
     64 C21         5.9090   -1.8160    2.6650 c3        1 MOL     -0.130553
     65 C22         4.4170   -1.8920    2.2880 c         1 MOL      0.675924
     66 O11         3.5460   -1.5750    3.1090 o         1 MOL     -0.704009
     67 O12         4.0610   -2.3080    1.1780 o         1 MOL     -0.704009
     68 H28         5.5270   -0.4190    0.4970 hn        1 MOL      0.097131
     69 H29         7.9020   -1.5380    1.9370 h1        1 MOL      0.084930
     70 H30         6.0630   -1.0570    3.4450 hc        1 MOL      0.049728
     71 H31         6.2500   -2.7520    3.1120 hc        1 MOL      0.049728
     72 N7          6.6030   -2.6880   -0.6520 n         1 MOL     -0.175756
     73 C23         6.4920   -3.7390   -1.6670 c3        1 MOL     -0.074514
     74 C24         5.1420   -4.3580   -1.9720 c         1 MOL      0.558323
     75 O13         5.0180   -5.3310   -2.6710 o         1 MOL     -0.578595
     76 H32         6.2110   -1.7630   -0.8090 hn        1 MOL      0.147270
     77 H33         7.0750   -4.6010   -1.3400 h1        1 MOL      0.082244
     78 H34         6.9270   -3.4220   -2.6090 h1        1 MOL      0.082244
     79 N8          4.0490   -3.7380   -1.4860 n         1 MOL     -0.289392
     80 C25         2.6640   -4.2760   -1.6170 c3        1 MOL     -0.123355
     81 C26         1.6020   -3.2210   -1.6370 c         1 MOL      0.615524
     82 O14         1.7180   -2.1730   -1.0130 o         1 MOL     -0.597779
     83 C27         2.4790   -5.2670   -0.3830 c3        1 MOL      0.449575
     84 C28         2.9100   -6.7530   -0.6540 c3        1 MOL     -0.295784
     85 O15         3.1620   -4.8780    0.7880 oh        1 MOL     -0.669764
     86 H35         4.1670   -2.9120   -0.9270 hn        1 MOL      0.164843
     87 H36         2.5170   -4.8500   -2.5330 h1        1 MOL      0.084289
     88 H37         1.4040   -5.2800   -0.2070 h1        1 MOL     -0.064627
     89 H38         3.3920   -3.9510    0.6760 ho        1 MOL      0.501907
     90 H39         3.9070   -6.8810   -1.0780 hc        1 MOL      0.076893
     91 H40         2.8060   -7.4110    0.2150 hc        1 MOL      0.076893
     92 H41         2.2310   -7.2220   -1.3640 hc        1 MOL      0.076893
     93 N9          0.4190   -3.5270   -2.2110 n         1 MOL     -0.539940
     94 C29        -0.7700   -2.6820   -2.2740 c3        1 MOL      0.000851
     95 C30        -1.9440   -3.2870   -1.4710 c         1 MOL      0.420797
     96 O16        -2.4200   -4.3670   -1.8140 o         1 MOL     -0.525544
     97 C31        -1.1860   -2.2670   -3.7190 c3        1 MOL      0.420781
     98 C32        -0.0780   -1.4900   -4.3980 c3        1 MOL     -0.156597
     99 C33        -2.5690   -1.6170   -3.8020 c3        1 MOL     -0.537346
    100 C34        -0.1850   -1.4870   -5.9470 c3        1 MOL     -0.071870
    101 H42         0.4190   -4.3630   -2.7780 hn        1 MOL      0.294190
    102 H43        -0.4870   -1.7850   -1.7400 h1        1 MOL      0.048897
    103 H44        -1.2330   -3.1920   -4.2970 hc        1 MOL     -0.050073
    104 H45         0.8960   -1.9590   -4.2470 hc        1 MOL      0.065636
    105 H46        -0.1050   -0.4940   -3.9620 hc        1 MOL      0.065636
    106 H47        -2.6920   -0.9310   -2.9640 hc        1 MOL      0.113406
    107 H48        -2.5590   -0.9150   -4.6280 hc        1 MOL      0.113406
    108 H49        -3.3610   -2.3600   -3.7240 hc        1 MOL      0.113406
    109 H50        -0.1440   -2.4890   -6.3670 hc        1 MOL      0.020151
    110 H51        -1.1790   -1.1580   -6.2560 hc        1 MOL      0.020151
    111 H52         0.5600   -0.8920   -6.4770 hc        1 MOL      0.020151
    112 N10        -2.3600   -2.4930   -0.4210 n         1 MOL     -0.113096
    113 C35        -3.5410   -2.8460    0.4980 c3        1 MOL     -0.001301
    114 C36        -4.9000   -2.4110   -0.0750 c         1 MOL      0.250162
    115 O17        -4.8210   -1.6100   -0.9580 o         1 MOL     -0.236824
    116 C37        -3.3360   -2.2730    1.9480 c3        1 MOL      0.032033
    117 C38        -2.1260   -2.9540    2.5910 c3        1 MOL     -0.179789
    118 O18        -3.0840   -0.9090    1.8450 oh        1 MOL     -0.210591
    119 H53        -1.7800   -1.7050   -0.1790 hn        1 MOL      0.240373
    120 H54        -3.6230   -3.9300    0.5210 h1        1 MOL      0.059569
    121 H55        -4.2150   -2.4810    2.5650 h1        1 MOL      0.040912
    122 H56        -2.2180   -0.7790    1.4430 ho        1 MOL     -0.001066
    123 H57        -2.2400   -4.0350    2.6350 hc        1 MOL      0.054024
    124 H58        -1.2620   -2.8020    1.9610 hc        1 MOL      0.054024
    125 H59        -2.0520   -2.4700    3.5700 hc        1 MOL      0.054024
    126 N11        -6.1090   -2.8980    0.2940 n         1 MOL     -0.256878
    127 C39        -7.4010   -2.3480   -0.1570 c3        1 MOL     -0.301609
    128 C40        -7.6060   -0.9100    0.1420 c         1 MOL      0.479752
    129 O19        -8.0010   -0.1340   -0.7390 o         1 MOL     -0.476090
    130 C41        -8.5950   -3.1180    0.3860 c3        1 MOL      0.436370
    131 C42        -8.8970   -4.5760   -0.0600 c3        1 MOL     -0.374418
    132 O20        -8.6800   -3.1720    1.8040 oh        1 MOL     -0.655509
    133 H60        -6.2080   -3.6540    0.9410 hn        1 MOL      0.287450
    134 H61        -7.4580   -2.4720   -1.2440 h1        1 MOL      0.169339
    135 H62        -9.4760   -2.5770    0.0670 h1        1 MOL      0.009260
    136 H63        -9.6050   -3.1500    2.0320 ho        1 MOL      0.406551
    137 H64        -8.0640   -5.1970    0.2520 hc        1 MOL      0.102156
    138 H65        -9.7840   -4.9150    0.4700 hc        1 MOL      0.102156
    139 H66        -9.0520   -4.5520   -1.1430 hc        1 MOL      0.102156
    140 N12        -7.1980   -0.5000    1.3730 n         1 MOL     -0.352123
    141 C43        -7.1570    0.9370    1.7300 c3        1 MOL      0.035986
    142 C44        -6.3050    1.7830    0.8460 c         1 MOL      0.286113
    143 O21        -6.7190    2.8960    0.4470 o         1 MOL     -0.503081
    144 C45        -6.6860    1.1610    3.1970 c3        1 MOL     -0.358017
    145 C46        -5.3810    0.4980    3.6220 c3        1 MOL      0.154785
    146 C47        -5.0040    0.7250    5.1000 c3        1 MOL     -0.226554
    147 C48        -3.6650    0.0750    5.3310 c3        1 MOL      0.158689
    148 N13        -2.7720    0.7020    6.3460 n4        1 MOL     -0.431377
    149 H67        -6.7570   -1.0960    2.0600 hn        1 MOL      0.227693
    150 H68        -8.2130    1.2180    1.6850 h1        1 MOL      0.125811
    151 H69        -7.4620    0.8040    3.8760 hc        1 MOL      0.121926
    152 H70        -6.5330    2.2400    3.2580 hc        1 MOL      0.121926
    153 H71        -4.5480    0.8230    3.0060 hc        1 MOL      0.016803
    154 H72        -5.3520   -0.5660    3.3680 hc        1 MOL      0.016803
    155 H73        -5.7190    0.3850    5.8430 hc        1 MOL      0.075327
    156 H74        -5.0080    1.8070    5.1870 hc        1 MOL      0.075327
    157 H75        -3.1870    0.1490    4.3600 hx        1 MOL      0.045234
    158 H76        -3.7060   -1.0140    5.4670 hx        1 MOL      0.045234
    159 H77        -3.1120    0.5170    7.2880 hn        1 MOL      0.349493
    160 H78        -1.8760    0.2430    6.3160 hn        1 MOL      0.349493
    161 H79        -2.8080    1.6980    6.1920 hn        1 MOL      0.349493
    162 N14        -5.1940    1.2420    0.3720 n         1 MOL      0.014393
    163 C49        -4.2760    1.9000   -0.5640 c3        1 MOL     -0.305307
    164 C50        -4.9230    1.9150   -1.9750 c         1 MOL      0.552289
    165 O22        -4.8170    2.9130   -2.6510 o         1 MOL     -0.584593
    166 C51        -2.9550    1.1180   -0.7380 c3        1 MOL      0.011757
    167 C52        -1.9890    1.4770    0.4340 c3        1 MOL     -0.233950
    168 C53        -0.7070    0.6580    0.4340 c         1 MOL      0.805209
    169 O23         0.3340    1.2500    0.5540 o         1 MOL     -0.687252
    170 O24        -0.6720   -0.5760    0.4240 o         1 MOL     -0.687252
    171 H80        -4.9740    0.2810    0.6170 hn        1 MOL      0.162455
    172 H81        -3.9860    2.8780   -0.1730 h1        1 MOL      0.135571
    173 H82        -2.5300    1.3260   -1.7210 hc        1 MOL      0.037919
    174 H83        -3.1250    0.0410   -0.7490 hc        1 MOL      0.037919
    175 H84        -2.5160    1.4910    1.3920 hc        1 MOL      0.057465
    176 H85        -1.8020    2.5360    0.2960 hc        1 MOL      0.057465
    177 N15        -5.6040    0.8150   -2.3390 n         1 MOL     -0.071751
    178 C54        -6.1930    0.6590   -3.6890 c3        1 MOL     -0.244746
    179 H86        -5.7290    1.3710   -4.3720 h1        1 MOL      0.093979
    180 H87        -6.0180   -0.3550   -4.0480 h1        1 MOL      0.093979
    181 H88        -7.2660    0.8470   -3.6420 h1        1 MOL      0.093979
    182 H89        -5.6400   -0.0300   -1.7960 hn        1 MOL      0.089651
    183 Ca1         1.8670   -0.7980    1.1020 Ca        1 MOL      1.705870
    184 O25         0.3460   -0.4500    3.2930 oh        1 MOL     -0.811205
    185 H90        -0.3060   -0.8210    3.8920 ho        1 MOL      0.383874
    186 H91         0.7260    0.2910    3.7730 ho        1 MOL      0.383874
    187 O26         1.1560   -3.1920    2.1040 oh        1 MOL     -0.811205
    188 H92         0.7080   -3.4290    2.9180 ho        1 MOL      0.383874
    189 H93         1.7290   -3.9310    1.9130 ho        1 MOL      0.383874
@<TRIPOS>BOND
     1    1    2 1   
     2    1    4 1   
     3    1    5 1   
     4    1    6 1   
     5    2    3 2   
     6    2    7 1   
     7    7    8 1   
     8    7   15 1   
     9    8    9 1   
    10    8   11 1   
    11    8   16 1   
    12    9   10 2   
    13    9   19 1   
    14   11   12 1   
    15   11   17 1   
    16   11   18 1   
    17   12   13 1   
    18   12   14 1   
    19   19   20 1   
    20   19   28 1   
    21   20   21 1   
    22   20   23 1   
    23   20   29 1   
    24   21   22 2   
    25   21   41 1   
    26   23   24 1   
    27   23   30 1   
    28   23   31 1   
    29   24   25 1   
    30   24   32 1   
    31   24   33 1   
    32   25   26 1   
    33   25   34 1   
    34   25   35 1   
    35   26   27 1   
    36   26   36 1   
    37   26   37 1   
    38   27   38 1   
    39   27   39 1   
    40   27   40 1   
    41   41   42 1   
    42   41   49 1   
    43   42   43 1   
    44   42   45 1   
    45   42   50 1   
    46   43   44 2   
    47   43   53 1   
    48   45   46 1   
    49   45   51 1   
    50   45   52 1   
    51   46   47 1   
    52   46   48 1   
    53   53   54 1   
    54   53   57 1   
    55   54   55 1   
    56   54   58 1   
    57   54   59 1   
    58   55   56 2   
    59   55   60 1   
    60   60   61 1   
    61   60   68 1   
    62   61   62 1   
    63   61   64 1   
    64   61   69 1   
    65   62   63 2   
    66   62   72 1   
    67   64   65 1   
    68   64   70 1   
    69   64   71 1   
    70   65   66 1   
    71   65   67 1   
    72   72   73 1   
    73   72   76 1   
    74   73   74 1   
    75   73   77 1   
    76   73   78 1   
    77   74   75 2   
    78   74   79 1   
    79   79   80 1   
    80   79   86 1   
    81   80   81 1   
    82   80   83 1   
    83   80   87 1   
    84   81   82 2   
    85   81   93 1   
    86   83   84 1   
    87   83   85 1   
    88   83   88 1   
    89   84   90 1   
    90   84   91 1   
    91   84   92 1   
    92   85   89 1   
    93   93   94 1   
    94   93  101 1   
    95   94   95 1   
    96   94   97 1   
    97   94  102 1   
    98   95   96 2   
    99   95  112 1   
   100   97   98 1   
   101   97   99 1   
   102   97  103 1   
   103   98  100 1   
   104   98  104 1   
   105   98  105 1   
   106   99  106 1   
   107   99  107 1   
   108   99  108 1   
   109  100  109 1   
   110  100  110 1   
   111  100  111 1   
   112  112  113 1   
   113  112  119 1   
   114  113  114 1   
   115  113  116 1   
   116  113  120 1   
   117  114  115 2   
   118  114  126 1   
   119  116  117 1   
   120  116  118 1   
   121  116  121 1   
   122  117  123 1   
   123  117  124 1   
   124  117  125 1   
   125  118  122 1   
   126  126  127 1   
   127  126  133 1   
   128  127  128 1   
   129  127  130 1   
   130  127  134 1   
   131  128  129 2   
   132  128  140 1   
   133  130  131 1   
   134  130  132 1   
   135  130  135 1   
   136  131  137 1   
   137  131  138 1   
   138  131  139 1   
   139  132  136 1   
   140  140  141 1   
   141  140  149 1   
   142  141  142 1   
   143  141  144 1   
   144  141  150 1   
   145  142  143 2   
   146  142  162 1   
   147  144  145 1   
   148  144  151 1   
   149  144  152 1   
   150  145  146 1   
   151  145  153 1   
   152  145  154 1   
   153  146  147 1   
   154  146  155 1   
   155  146  156 1   
   156  147  148 1   
   157  147  157 1   
   158  147  158 1   
   159  148  159 1   
   160  148  160 1   
   161  148  161 1   
   162  162  163 1   
   163  162  171 1   
   164  163  164 1   
   165  163  166 1   
   166  163  172 1   
   167  164  165 2   
   168  164  177 1   
   169  166  167 1   
   170  166  173 1   
   171  166  174 1   
   172  167  168 1   
   173  167  175 1   
   174  167  176 1   
   175  168  169 1   
   176  168  170 1   
   177  177  178 1   
   178  177  182 1   
   179  178  179 1   
   180  178  180 1   
   181  178  181 1   
   182  184  185 1   
   183  184  186 1   
   184  187  188 1   
   185  187  189 1   
@<TRIPOS>SUBSTRUCTURE
     1 MOL         1 TEMP              0 ****  ****    0 ROOT
