@<TRIPOS>MOLECULE
MOL
  189   185     1     0     0
SMALL
resp


@<TRIPOS>ATOM
      1 C1         -0.2170    3.3410   -4.7210 c3        1 MOL     -0.254144
      2 C2          0.4890    3.1260   -3.3680 c         1 MOL      0.596348
      3 O1          0.1460    3.7220   -2.3540 o         1 MOL     -0.587405
      4 H1         -1.2860    3.1560   -4.6060 hc        1 MOL      0.073311
      5 H2         -0.0600    4.3670   -5.0550 hc        1 MOL      0.073311
      6 H3          0.1930    2.6520   -5.4590 hc        1 MOL      0.073311
      7 N1          1.4800    2.2330   -3.3210 n         1 MOL     -0.481186
      8 C3          2.0790    1.8260   -2.0990 c3        1 MOL      0.059753
      9 C4          3.0800    2.8710   -1.7770 c         1 MOL      0.348985
     10 O2          4.2930    2.7460   -2.1480 o         1 MOL     -0.523472
     11 C5          2.7430    0.4390   -2.2240 c3        1 MOL     -0.434268
     12 C6          3.4760    0.0700   -0.8530 c         1 MOL      0.763491
     13 O3          4.5170   -0.5930   -0.9640 o         1 MOL     -0.676145
     14 O4          3.0060    0.4340    0.2440 o         1 MOL     -0.676145
     15 H4          1.7520    1.6680   -4.1150 hn        1 MOL      0.310303
     16 H5          1.3790    1.7330   -1.2620 h1        1 MOL      0.140659
     17 H6          3.4450    0.4440   -3.0630 hc        1 MOL      0.110588
     18 H7          2.0820   -0.3980   -2.4780 hc        1 MOL      0.110588
     19 N2          2.6920    3.8340   -0.9780 n         1 MOL     -0.044342
     20 C7          3.7210    4.7440   -0.3620 c3        1 MOL     -0.185513
     21 C8          4.5640    4.1520    0.7450 c         1 MOL      0.431586
     22 O5          5.6340    4.6790    1.0020 o         1 MOL     -0.532686
     23 C9          3.0140    5.9530    0.1810 c3        1 MOL      0.062047
     24 C10         2.0000    6.7230   -0.7910 c3        1 MOL     -0.029862
     25 C11         2.5140    6.8880   -2.2770 c3        1 MOL     -0.061029
     26 C12         3.9190    7.5870   -2.4750 c3        1 MOL      0.156268
     27 N3          4.2450    7.8620   -3.9380 n4        1 MOL     -0.510657
     28 H8          1.7500    3.7580   -0.6130 hn        1 MOL      0.247267
     29 H9          4.5240    5.0540   -1.0340 h1        1 MOL      0.079604
     30 H10         3.7180    6.7030    0.5500 hc        1 MOL      0.011997
     31 H11         2.5300    5.6290    1.0890 hc        1 MOL      0.011997
     32 H12         1.8580    7.7250   -0.3960 hc        1 MOL      0.034898
     33 H13         1.0040    6.2890   -0.7430 hc        1 MOL      0.034898
     34 H14         1.7550    7.5500   -2.6930 hc        1 MOL      0.017041
     35 H15         2.4230    5.8990   -2.7170 hc        1 MOL      0.017041
     36 H16         4.6540    6.9420   -1.9980 hx        1 MOL      0.050202
     37 H17         3.9000    8.5180   -1.9190 hx        1 MOL      0.050202
     38 H18         4.4840    6.9800   -4.3830 hn        1 MOL      0.365664
     39 H19         3.5280    8.3890   -4.3930 hn        1 MOL      0.365664
     40 H20         5.0410    8.4900   -3.9330 hn        1 MOL      0.365664
     41 N4          4.0140    3.1690    1.4790 n         1 MOL     -0.088816
     42 C13         4.6710    2.5000    2.5850 c3        1 MOL     -0.324306
     43 C14         5.9640    1.7230    2.2920 c         1 MOL      0.483744
     44 O6          6.8510    1.4850    3.1260 o         1 MOL     -0.511823
     45 C15         3.7160    1.5920    3.2800 c3        1 MOL     -0.002007
     46 C16         2.2980    1.9110    3.5480 c         1 MOL      0.722312
     47 O7          1.5240    0.9460    3.6200 o         1 MOL     -0.699626
     48 O8          1.9840    3.1070    3.8280 o         1 MOL     -0.699626
     49 H21         3.0870    2.9250    1.1590 hn        1 MOL      0.169726
     50 H22         4.9670    3.2620    3.3000 h1        1 MOL      0.142888
     51 H23         4.0970    1.3280    4.2720 hc        1 MOL      0.014805
     52 H24         3.7010    0.7070    2.6400 hc        1 MOL      0.014805
     53 N5          6.0960    1.4690    0.9730 n         1 MOL     -0.124670
     54 C17         7.1740    0.6060    0.4080 c3        1 MOL     -0.540837
     55 C18         7.3820   -0.8220    0.8580 c         1 MOL      0.735299
     56 O9          8.4990   -1.3380    0.8430 o         1 MOL     -0.613956
     57 H25         5.3740    1.8090    0.3510 hn        1 MOL      0.241791
     58 H26         8.0790    1.1200    0.7180 h1        1 MOL      0.179827
     59 H27         7.0280    0.5940   -0.6740 h1        1 MOL      0.179827
     60 N6          6.2820   -1.5220    1.1760 n         1 MOL     -0.396882
     61 C19         6.2350   -2.8880    1.7040 c3        1 MOL     -0.085638
     62 C20         5.8410   -3.9050    0.6490 c         1 MOL      0.523018
     63 O10         5.5600   -5.0600    1.0070 o         1 MOL     -0.564062
     64 C21         5.2430   -2.8060    2.9160 c3        1 MOL     -0.190731
     65 C22         3.7850   -2.3910    2.5510 c         1 MOL      0.815240
     66 O11         3.0000   -1.9550    3.4020 o         1 MOL     -0.801294
     67 O12         3.4150   -2.5510    1.3630 o         1 MOL     -0.801294
     68 H28         5.3620   -1.0910    1.1310 hn        1 MOL      0.307135
     69 H29         7.2110   -3.2910    1.9860 h1        1 MOL      0.122261
     70 H30         5.7280   -2.2260    3.6980 hc        1 MOL      0.073241
     71 H31         5.1500   -3.7730    3.3980 hc        1 MOL      0.073241
     72 N7          6.0220   -3.5450   -0.6160 n         1 MOL     -0.343322
     73 C23         5.8380   -4.2660   -1.8800 c3        1 MOL     -0.043366
     74 C24         4.4040   -4.8450   -2.0380 c         1 MOL      0.425973
     75 O13         4.1650   -5.7020   -2.8870 o         1 MOL     -0.531121
     76 H32         6.2660   -2.5710   -0.6890 hn        1 MOL      0.272699
     77 H33         6.5800   -5.0500   -1.9690 h1        1 MOL      0.089016
     78 H34         6.1440   -3.5830   -2.6710 h1        1 MOL      0.089016
     79 N8          3.4170   -4.4370   -1.1710 n         1 MOL     -0.089876
     80 C25         2.0140   -4.8930   -1.2350 c3        1 MOL     -0.261096
     81 C26         1.0440   -3.6570   -1.3710 c         1 MOL      0.690357
     82 O14         1.2300   -2.6500   -0.6770 o         1 MOL     -0.651130
     83 C27         1.7330   -5.6540    0.0380 c3        1 MOL      0.451392
     84 C28         2.2460   -7.0770   -0.1090 c3        1 MOL     -0.396523
     85 O15         2.4580   -5.1160    1.1300 oh        1 MOL     -0.614286
     86 H35         3.6000   -3.7600   -0.4510 hn        1 MOL      0.180385
     87 H36         1.8230   -5.5680   -2.0690 h1        1 MOL      0.112783
     88 H37         0.6610   -5.6880    0.2220 h1        1 MOL      0.000278
     89 H38         3.3360   -4.9440    0.7830 ho        1 MOL      0.382636
     90 H39         1.9290   -7.4940   -1.0650 hc        1 MOL      0.097318
     91 H40         3.3350   -7.1060   -0.1100 hc        1 MOL      0.097318
     92 H41         1.8440   -7.7080    0.6800 hc        1 MOL      0.097318
     93 N9          0.0190   -3.7290   -2.2050 n         1 MOL     -0.580795
     94 C29        -1.0410   -2.6620   -2.3310 c3        1 MOL      0.021403
     95 C30        -2.3080   -3.1520   -1.5670 c         1 MOL      0.506804
     96 O16        -2.8250   -4.2540   -1.7750 o         1 MOL     -0.563494
     97 C31        -1.3500   -2.1470   -3.7370 c3        1 MOL      0.325379
     98 C32        -0.0980   -1.5970   -4.3850 c3        1 MOL      0.161950
     99 C33        -2.5140   -1.1650   -3.8230 c3        1 MOL     -0.474254
    100 C34        -0.2780   -1.7070   -5.8820 c3        1 MOL     -0.192669
    101 H42        -0.0820   -4.5210   -2.8200 hn        1 MOL      0.309225
    102 H43        -0.6680   -1.8220   -1.7560 h1        1 MOL      0.048782
    103 H44        -1.5980   -3.0520   -4.2780 hc        1 MOL     -0.036817
    104 H45         0.7820   -2.1240   -4.0030 hc        1 MOL     -0.039242
    105 H46        -0.0030   -0.5420   -4.1180 hc        1 MOL     -0.039242
    106 H47        -3.4040   -1.5730   -3.3360 hc        1 MOL      0.079808
    107 H48        -2.2310   -0.2860   -3.2500 hc        1 MOL      0.079808
    108 H49        -2.6210   -0.8360   -4.8570 hc        1 MOL      0.079808
    109 H50        -1.0140   -1.0050   -6.2630 hc        1 MOL      0.035927
    110 H51         0.6660   -1.3000   -6.2580 hc        1 MOL      0.035927
    111 H52        -0.4300   -2.7400   -6.1890 hc        1 MOL      0.035927
    112 N10        -2.8140   -2.2920   -0.6560 n         1 MOL     -0.220506
    113 C35        -3.9880   -2.5840    0.2090 c3        1 MOL     -0.044300
    114 C36        -5.3100   -2.0500   -0.3660 c         1 MOL      0.367091
    115 O17        -5.3400   -1.2050   -1.2610 o         1 MOL     -0.434591
    116 C37        -3.8840   -1.9380    1.6560 c3        1 MOL      0.403560
    117 C38        -2.7340   -2.6640    2.3090 c3        1 MOL     -0.545900
    118 O18        -3.7090   -0.5660    1.5700 oh        1 MOL     -0.531007
    119 H53        -2.3090   -1.4360   -0.5000 hn        1 MOL      0.276327
    120 H54        -4.0640   -3.6620    0.3640 h1        1 MOL      0.083933
    121 H55        -4.8470   -2.1890    2.0940 h1        1 MOL     -0.012687
    122 H56        -2.7920   -0.4720    1.2940 ho        1 MOL      0.377164
    123 H57        -1.8660   -2.1010    1.9750 hc        1 MOL      0.115847
    124 H58        -2.8460   -2.5750    3.3900 hc        1 MOL      0.115847
    125 H59        -2.5900   -3.6920    1.9720 hc        1 MOL      0.115847
    126 N11        -6.4380   -2.5410    0.0950 n         1 MOL     -0.237493
    127 C39        -7.7850   -2.1000   -0.2930 c3        1 MOL      0.031746
    128 C40        -7.9470   -0.5770   -0.0070 c         1 MOL      0.260105
    129 O19        -8.6240    0.1660   -0.7200 o         1 MOL     -0.439063
    130 C41        -8.8790   -2.7290    0.6540 c3        1 MOL      0.249482
    131 C42       -10.3250   -2.4700    0.1140 c3        1 MOL     -0.221358
    132 O20        -8.6700   -4.2100    0.6310 oh        1 MOL     -0.586078
    133 H60        -6.3850   -3.3260    0.7250 hn        1 MOL      0.184420
    134 H61        -7.9820   -2.2280   -1.3640 h1        1 MOL      0.129084
    135 H62        -8.9600   -2.3390    1.6630 h1        1 MOL      0.007765
    136 H63        -9.2160   -4.4940    1.3690 ho        1 MOL      0.379980
    137 H64       -10.4260   -2.8620   -0.8930 hc        1 MOL      0.065794
    138 H65       -11.0940   -2.9620    0.7130 hc        1 MOL      0.065794
    139 H66       -10.5100   -1.4140   -0.0510 hc        1 MOL      0.065794
    140 N12        -7.1620   -0.0760    0.9420 n         1 MOL     -0.144321
    141 C43        -6.9910    1.3350    1.2930 c3        1 MOL     -0.087043
    142 C44        -6.2040    2.1130    0.2740 c         1 MOL      0.231953
    143 O21        -6.7320    3.2040   -0.1010 o         1 MOL     -0.492781
    144 C45        -6.3080    1.4050    2.7130 c3        1 MOL      0.101077
    145 C46        -6.1150    2.8240    3.2710 c3        1 MOL     -0.198421
    146 C47        -5.5580    2.7930    4.7030 c3        1 MOL      0.089347
    147 C48        -5.4210    4.2520    5.2330 c3        1 MOL     -0.067527
    148 N13        -5.1440    4.2530    6.6510 n4        1 MOL     -0.122917
    149 H67        -6.6580   -0.7420    1.5040 hn        1 MOL      0.123032
    150 H68        -7.9340    1.8590    1.4190 h1        1 MOL      0.120454
    151 H69        -5.3330    0.9040    2.6460 hc        1 MOL     -0.012556
    152 H70        -6.8980    0.7910    3.3890 hc        1 MOL     -0.012556
    153 H71        -7.1280    3.2340    3.2850 hc        1 MOL      0.070973
    154 H72        -5.3970    3.3490    2.6380 hc        1 MOL      0.070973
    155 H73        -4.5710    2.3240    4.7330 hc        1 MOL      0.010788
    156 H74        -6.2670    2.2120    5.3040 hc        1 MOL      0.010788
    157 H75        -6.3850    4.7140    5.0060 hx        1 MOL      0.104678
    158 H76        -4.5770    4.7040    4.7190 hx        1 MOL      0.104678
    159 H77        -4.8050    5.1280    7.0290 hn        1 MOL      0.245182
    160 H78        -5.8490    3.9120    7.2890 hn        1 MOL      0.245182
    161 H79        -4.3170    3.6730    6.7760 hn        1 MOL      0.245182
    162 N14        -5.0650    1.6080   -0.1870 n         1 MOL      0.213105
    163 C49        -4.1640    2.2550   -1.1130 c3        1 MOL     -0.233890
    164 C50        -4.7710    2.4200   -2.5410 c         1 MOL      0.379644
    165 O22        -4.6810    3.4660   -3.1970 o         1 MOL     -0.510074
    166 C51        -2.7780    1.5400   -1.1190 c3        1 MOL      0.102477
    167 C52        -1.9110    1.9570    0.0890 c3        1 MOL     -0.495188
    168 C53        -0.8800    0.9400    0.5790 c         1 MOL      0.788882
    169 O23         0.2270    1.3320    0.9030 o         1 MOL     -0.784468
    170 O24        -1.0250   -0.2870    0.4890 o         1 MOL     -0.784468
    171 H80        -4.7330    0.7840    0.2940 hn        1 MOL      0.041215
    172 H81        -3.9300    3.2880   -0.8500 h1        1 MOL      0.091052
    173 H82        -2.1960    1.8310   -1.9970 hc        1 MOL      0.065439
    174 H83        -3.0400    0.4810   -1.1410 hc        1 MOL      0.065439
    175 H84        -2.5280    2.2100    0.9480 hc        1 MOL      0.149953
    176 H85        -1.3740    2.8690   -0.1950 hc        1 MOL      0.149953
    177 N15        -5.5790    1.3870   -2.9930 n         1 MOL     -0.050967
    178 C54        -6.3290    1.4000   -4.1810 c3        1 MOL     -0.287845
    179 H86        -7.3780    1.2210   -3.9490 h1        1 MOL      0.102773
    180 H87        -6.2240    2.3700   -4.6670 h1        1 MOL      0.102773
    181 H88        -5.9670    0.6180   -4.8490 h1        1 MOL      0.102773
    182 H89        -5.7020    0.6110   -2.3680 hn        1 MOL      0.160695
    183 Ca1         1.3140   -0.9500    1.6960 Ca        1 MOL      1.826757
    184 O25         0.4600   -3.5090    1.9520 oh        1 MOL     -0.801506
    185 H90         0.1550   -3.9230    2.7640 ho        1 MOL      0.394699
    186 H91         1.2070   -4.0400    1.6860 ho        1 MOL      0.394699
    187 O26        -0.3160   -1.4130    3.8250 oh        1 MOL     -0.801506
    188 H92        -0.8680   -0.9070    4.4180 ho        1 MOL      0.394699
    189 H93        -0.4950   -2.3300    4.0490 ho        1 MOL      0.394699
@<TRIPOS>BOND
     1    1    2 1   
     2    1    4 1   
     3    1    5 1   
     4    1    6 1   
     5    2    3 2   
     6    2    7 1   
     7    7    8 1   
     8    7   15 1   
     9    8    9 1   
    10    8   11 1   
    11    8   16 1   
    12    9   10 2   
    13    9   19 1   
    14   11   12 1   
    15   11   17 1   
    16   11   18 1   
    17   12   13 1   
    18   12   14 1   
    19   19   20 1   
    20   19   28 1   
    21   20   21 1   
    22   20   23 1   
    23   20   29 1   
    24   21   22 2   
    25   21   41 1   
    26   23   24 1   
    27   23   30 1   
    28   23   31 1   
    29   24   25 1   
    30   24   32 1   
    31   24   33 1   
    32   25   26 1   
    33   25   34 1   
    34   25   35 1   
    35   26   27 1   
    36   26   36 1   
    37   26   37 1   
    38   27   38 1   
    39   27   39 1   
    40   27   40 1   
    41   41   42 1   
    42   41   49 1   
    43   42   43 1   
    44   42   45 1   
    45   42   50 1   
    46   43   44 2   
    47   43   53 1   
    48   45   46 1   
    49   45   51 1   
    50   45   52 1   
    51   46   47 1   
    52   46   48 1   
    53   53   54 1   
    54   53   57 1   
    55   54   55 1   
    56   54   58 1   
    57   54   59 1   
    58   55   56 2   
    59   55   60 1   
    60   60   61 1   
    61   60   68 1   
    62   61   62 1   
    63   61   64 1   
    64   61   69 1   
    65   62   63 2   
    66   62   72 1   
    67   64   65 1   
    68   64   70 1   
    69   64   71 1   
    70   65   66 1   
    71   65   67 1   
    72   72   73 1   
    73   72   76 1   
    74   73   74 1   
    75   73   77 1   
    76   73   78 1   
    77   74   75 2   
    78   74   79 1   
    79   79   80 1   
    80   79   86 1   
    81   80   81 1   
    82   80   83 1   
    83   80   87 1   
    84   81   82 2   
    85   81   93 1   
    86   83   84 1   
    87   83   85 1   
    88   83   88 1   
    89   84   90 1   
    90   84   91 1   
    91   84   92 1   
    92   85   89 1   
    93   93   94 1   
    94   93  101 1   
    95   94   95 1   
    96   94   97 1   
    97   94  102 1   
    98   95   96 2   
    99   95  112 1   
   100   97   98 1   
   101   97   99 1   
   102   97  103 1   
   103   98  100 1   
   104   98  104 1   
   105   98  105 1   
   106   99  106 1   
   107   99  107 1   
   108   99  108 1   
   109  100  109 1   
   110  100  110 1   
   111  100  111 1   
   112  112  113 1   
   113  112  119 1   
   114  113  114 1   
   115  113  116 1   
   116  113  120 1   
   117  114  115 2   
   118  114  126 1   
   119  116  117 1   
   120  116  118 1   
   121  116  121 1   
   122  117  123 1   
   123  117  124 1   
   124  117  125 1   
   125  118  122 1   
   126  126  127 1   
   127  126  133 1   
   128  127  128 1   
   129  127  130 1   
   130  127  134 1   
   131  128  129 2   
   132  128  140 1   
   133  130  131 1   
   134  130  132 1   
   135  130  135 1   
   136  131  137 1   
   137  131  138 1   
   138  131  139 1   
   139  132  136 1   
   140  140  141 1   
   141  140  149 1   
   142  141  142 1   
   143  141  144 1   
   144  141  150 1   
   145  142  143 2   
   146  142  162 1   
   147  144  145 1   
   148  144  151 1   
   149  144  152 1   
   150  145  146 1   
   151  145  153 1   
   152  145  154 1   
   153  146  147 1   
   154  146  155 1   
   155  146  156 1   
   156  147  148 1   
   157  147  157 1   
   158  147  158 1   
   159  148  159 1   
   160  148  160 1   
   161  148  161 1   
   162  162  163 1   
   163  162  171 1   
   164  163  164 1   
   165  163  166 1   
   166  163  172 1   
   167  164  165 2   
   168  164  177 1   
   169  166  167 1   
   170  166  173 1   
   171  166  174 1   
   172  167  168 1   
   173  167  175 1   
   174  167  176 1   
   175  168  169 1   
   176  168  170 1   
   177  177  178 1   
   178  177  182 1   
   179  178  179 1   
   180  178  180 1   
   181  178  181 1   
   182  184  185 1   
   183  184  186 1   
   184  187  188 1   
   185  187  189 1   
@<TRIPOS>SUBSTRUCTURE
     1 MOL         1 TEMP              0 ****  ****    0 ROOT
