@<TRIPOS>MOLECULE
MOL
  186   183     1     0     0
SMALL
resp


@<TRIPOS>ATOM
      1 C1         -0.0260   -2.9350    6.0930 c3        1 MOL     -0.312083
      2 C2          0.6900   -2.5750    4.8290 c         1 MOL      0.709959
      3 O1          0.8350   -1.3310    4.5380 o         1 MOL     -0.639814
      4 H1         -1.0680   -2.6230    6.0210 hc        1 MOL      0.080574
      5 H2          0.0200   -4.0140    6.2430 hc        1 MOL      0.080574
      6 H3          0.4460   -2.4300    6.9350 hc        1 MOL      0.080574
      7 N1          1.1610   -3.5430    4.0240 n         1 MOL     -0.590873
      8 C3          1.9150   -3.2560    2.8530 c3        1 MOL      0.201538
      9 C4          1.8250   -4.4600    1.9020 c         1 MOL      0.466254
     10 O2          1.6060   -5.5750    2.4650 o         1 MOL     -0.605102
     11 C5          3.3830   -2.9950    3.2520 c3        1 MOL     -0.244795
     12 C6          4.2640   -2.8380    1.9550 c         1 MOL      0.689662
     13 O3          5.1520   -3.6600    1.7650 o         1 MOL     -0.664203
     14 O4          3.9200   -1.9550    1.1900 o         1 MOL     -0.664203
     15 H4          0.9860   -4.5100    4.2170 hn        1 MOL      0.325026
     16 H5          1.5570   -2.3190    2.4250 h1        1 MOL      0.073945
     17 H6          3.7030   -3.8810    3.7980 hc        1 MOL      0.037775
     18 H7          3.4380   -2.0770    3.8330 hc        1 MOL      0.037775
     19 N2          1.9990   -4.3730    0.6170 n         1 MOL     -0.003555
     20 C7          1.9320   -5.5680   -0.3130 c3        1 MOL     -0.243925
     21 C8          3.1210   -5.4570   -1.3350 c         1 MOL      0.657868
     22 O5          3.4020   -6.3890   -2.0730 o         1 MOL     -0.587228
     23 C9          0.5200   -5.6470   -1.0020 c3        1 MOL      0.189440
     24 C10        -0.7520   -5.3120   -0.1140 c3        1 MOL      0.030526
     25 C11         0.4000   -6.9300   -1.8070 c3        1 MOL     -0.279984
     26 C12        -1.9270   -5.0300   -0.9910 c3        1 MOL     -0.210890
     27 H8          1.7000   -3.4810    0.2470 hn        1 MOL      0.170965
     28 H9          2.1790   -6.4370    0.2870 h1        1 MOL      0.102481
     29 H10         0.6850   -4.8320   -1.7140 hc        1 MOL      0.015455
     30 H11        -0.5790   -4.4140    0.4820 hc        1 MOL     -0.009091
     31 H12        -0.9180   -6.1260    0.5980 hc        1 MOL     -0.009091
     32 H13         1.2720   -7.0930   -2.4340 hc        1 MOL      0.060809
     33 H14         0.2480   -7.7850   -1.1470 hc        1 MOL      0.060809
     34 H15        -0.4340   -6.9760   -2.5190 hc        1 MOL      0.060809
     35 H16        -2.0420   -5.7670   -1.7940 hc        1 MOL      0.058695
     36 H17        -2.7680   -5.0200   -0.2960 hc        1 MOL      0.058695
     37 H18        -1.7850   -4.0560   -1.4600 hc        1 MOL      0.058695
     38 N3          3.8730   -4.3250   -1.3880 n         1 MOL     -0.360684
     39 C13         4.7640   -3.8310   -2.5030 c3        1 MOL      0.106924
     40 C14         6.0490   -3.1490   -2.0510 c         1 MOL      0.377161
     41 O6          6.9870   -2.9490   -2.8590 o         1 MOL     -0.568113
     42 C15         4.0500   -2.9620   -3.5010 c3        1 MOL     -0.163326
     43 C16         3.1900   -1.9070   -2.9450 c         1 MOL      0.827690
     44 O7          3.4580   -1.4560   -1.7890 o         1 MOL     -0.737304
     45 O8          2.2740   -1.4230   -3.7080 o         1 MOL     -0.737304
     46 H19         3.6510   -3.6750   -0.6400 hn        1 MOL      0.044430
     47 H20         5.0500   -4.7330   -3.0410 h1        1 MOL      0.058903
     48 H21         3.3840   -3.6180   -4.0560 hc        1 MOL      0.038662
     49 H22         4.7800   -2.5130   -4.1660 hc        1 MOL      0.038662
     50 N4          6.1380   -2.8060   -0.7660 n         1 MOL     -0.026634
     51 C17         7.3890   -2.3440   -0.1550 c3        1 MOL     -0.215419
     52 C18         7.8930   -0.9260   -0.5780 c         1 MOL      0.424757
     53 O9          9.0710   -0.6010   -0.2980 o         1 MOL     -0.579421
     54 H23         5.3700   -3.0500   -0.1740 hn        1 MOL      0.088526
     55 H24         8.2420   -2.9900   -0.3840 h1        1 MOL      0.115528
     56 H25         7.3060   -2.3090    0.9280 h1        1 MOL      0.115528
     57 N5          7.0060   -0.1380   -1.2050 n         1 MOL     -0.083194
     58 C19         7.3140    1.2120   -1.7800 c3        1 MOL     -0.028441
     59 C20         7.4520    2.3020   -0.6600 c         1 MOL      0.388758
     60 O10         8.0550    3.3700   -0.8310 o         1 MOL     -0.525506
     61 C21         6.1180    1.6160   -2.6140 c3        1 MOL     -0.347942
     62 C22         4.7030    1.6110   -2.0080 c         1 MOL      0.868220
     63 O11         4.4580    1.3610   -0.8000 o         1 MOL     -0.699764
     64 O12         3.8420    1.7910   -2.8690 o         1 MOL     -0.699764
     65 H26         6.0700   -0.5120   -1.3140 hn        1 MOL      0.095244
     66 H27         8.2350    1.1280   -2.3550 h1        1 MOL      0.109342
     67 H28         6.1620    0.8600   -3.4020 hc        1 MOL      0.102209
     68 H29         6.3690    2.5860   -3.0300 hc        1 MOL      0.102209
     69 N6          7.0110    1.9520    0.5720 n         1 MOL     -0.203891
     70 C23         6.8600    2.7960    1.8240 c3        1 MOL     -0.184154
     71 C24         5.7370    3.8320    1.7670 c         1 MOL      0.458063
     72 O13         5.8190    4.8370    2.5220 o         1 MOL     -0.611645
     73 H30         6.5280    1.0730    0.6560 hn        1 MOL      0.183546
     74 H31         7.8070    3.3110    1.9970 h1        1 MOL      0.116481
     75 H32         6.7320    2.0870    2.6470 h1        1 MOL      0.116481
     76 N7          4.7660    3.7220    0.9160 n         1 MOL      0.004240
     77 C25         3.5520    4.5560    0.8230 c3        1 MOL     -0.081233
     78 C26         2.2820    3.6790    0.9540 c         1 MOL      0.315524
     79 O14         2.4090    2.4420    1.0630 o         1 MOL     -0.414511
     80 C27         3.5610    5.2680   -0.5900 c3        1 MOL     -0.002380
     81 C28         4.8750    6.0690   -0.8270 c3        1 MOL     -0.096872
     82 C29         4.7750    6.9140   -2.0870 c         1 MOL      0.588940
     83 N8          5.6950    6.6870   -3.0250 n         1 MOL     -0.757153
     84 O15         3.8990    7.7700   -2.2350 o         1 MOL     -0.568078
     85 H33         4.7670    2.8080    0.4740 hn        1 MOL      0.035589
     86 H34         3.5900    5.2960    1.6220 h1        1 MOL      0.101233
     87 H35         2.7670    5.9930   -0.7780 hc        1 MOL      0.046019
     88 H36         3.5700    4.5530   -1.4250 hc        1 MOL      0.046019
     89 H37         5.8330    5.5340   -0.8560 hc        1 MOL      0.030245
     90 H38         4.9560    6.7790    0.0030 hc        1 MOL      0.030245
     91 H39         6.2910    5.8750   -2.9750 hn        1 MOL      0.350358
     92 H40         5.8020    7.3650   -3.7700 hn        1 MOL      0.350358
     93 N9          1.0970    4.3110    1.0760 n         1 MOL     -0.398843
     94 C30        -0.1610    3.5990    1.4920 c3        1 MOL      0.084115
     95 C31        -1.2290    3.6380    0.3420 c         1 MOL      0.352608
     96 O16        -1.5730    4.7430   -0.1130 o         1 MOL     -0.531288
     97 C32        -0.7350    4.0980    2.8140 c3        1 MOL      0.338767
     98 C33        -2.0530    3.4110    3.2130 c3        1 MOL     -0.344643
     99 C34         0.2250    3.8810    3.9520 c3        1 MOL     -0.344643
    100 H41         1.1040    5.3100    1.2310 hn        1 MOL      0.286338
    101 H42         0.0600    2.5600    1.7220 h1        1 MOL      0.161161
    102 H43        -0.9560    5.1370    2.5840 hc        1 MOL     -0.072509
    103 H44        -2.4330    3.7430    4.1770 hc        1 MOL      0.069491
    104 H45        -2.8860    3.5440    2.5190 hc        1 MOL      0.069491
    105 H46        -1.9290    2.3220    3.1680 hc        1 MOL      0.069491
    106 H47         0.5520    2.8380    3.9000 hc        1 MOL      0.069491
    107 H48         1.0430    4.5920    3.8730 hc        1 MOL      0.069491
    108 H49        -0.2600    4.1270    4.8940 hc        1 MOL      0.069491
    109 N10        -1.5730    2.3680   -0.1060 n         1 MOL     -0.046205
    110 C35        -2.5390    2.1050   -1.1640 c3        1 MOL     -0.008085
    111 C36        -3.9390    2.0780   -0.6250 c         1 MOL      0.320242
    112 O17        -4.1320    1.7540    0.5560 o         1 MOL     -0.329335
    113 C37        -2.1060    0.8680   -1.9680 c3        1 MOL     -0.494586
    114 C38        -2.8850    0.7160   -3.2480 c         1 MOL      0.760732
    115 N11        -2.7950    1.6510   -4.1850 n         1 MOL     -0.812596
    116 O18        -3.6680   -0.1840   -3.4290 o         1 MOL     -0.549640
    117 H50        -1.1780    1.5220    0.2760 hn        1 MOL      0.037115
    118 H51        -2.4850    2.9150   -1.8790 h1        1 MOL      0.056607
    119 H52        -2.2010   -0.0370   -1.3710 hc        1 MOL      0.200778
    120 H53        -1.0650    0.7850   -2.2790 hc        1 MOL      0.200778
    121 H54        -2.1400    2.4000   -4.0640 hn        1 MOL      0.359484
    122 H55        -3.3030    1.5340   -5.0490 hn        1 MOL      0.359484
    123 N12        -4.9720    2.2690   -1.4280 n         1 MOL     -0.273980
    124 C39        -6.3430    2.2920   -0.9150 c3        1 MOL      0.073254
    125 C40        -6.7750    1.0210   -0.1250 c         1 MOL      0.541547
    126 O19        -7.4300    1.0300    0.8460 o         1 MOL     -0.527898
    127 C41        -7.2670    2.6580   -2.0680 c3        1 MOL     -0.041358
    128 C42        -8.7480    2.3840   -1.7650 ca        1 MOL      0.109654
    129 C43        -9.4660    3.2690   -0.9260 ca        1 MOL     -0.327108
    130 C44        -9.3660    1.2580   -2.3420 ca        1 MOL     -0.327108
    131 C45       -10.8230    3.0180   -0.6570 ca        1 MOL     -0.032705
    132 C46       -10.6880    0.9750   -1.9760 ca        1 MOL     -0.032705
    133 C47       -11.4500    1.9100   -1.2240 ca        1 MOL      0.153651
    134 O20       -12.7250    1.6590   -0.8020 oh        1 MOL     -0.537251
    135 H56        -4.7920    2.6560   -2.3490 hn        1 MOL      0.210597
    136 H57        -6.4320    3.1280   -0.2190 h1        1 MOL      0.016493
    137 H58        -6.9410    2.0100   -2.8910 hc        1 MOL      0.031078
    138 H59        -7.1350    3.6590   -2.4770 hc        1 MOL      0.031078
    139 H60        -8.9690    4.0180   -0.3310 ha        1 MOL      0.173457
    140 H61        -8.8130    0.6710   -3.0430 ha        1 MOL      0.173457
    141 H62       -11.3710    3.6580    0.0200 ha        1 MOL      0.094083
    142 H63       -11.1780    0.1500   -2.4840 ha        1 MOL      0.094083
    143 H64       -13.0430    0.7580   -0.9030 ho        1 MOL      0.404133
    144 N13        -6.2770   -0.1490   -0.5740 n         1 MOL     -0.228743
    145 C48        -6.4360   -1.4630    0.0960 c3        1 MOL     -0.102771
    146 C49        -5.5860   -1.8110    1.3020 c         1 MOL      0.329496
    147 O21        -5.9010   -2.8330    1.9660 o         1 MOL     -0.519126
    148 C50        -6.1040   -2.5290   -0.9780 c3        1 MOL      0.089903
    149 C51        -7.1350   -2.5430   -2.0910 c3        1 MOL     -0.179143
    150 C52        -6.7960   -3.7220   -3.0090 c         1 MOL      0.699247
    151 O22        -6.0350   -3.7300   -4.0120 o         1 MOL     -0.733222
    152 O23        -7.4600   -4.7180   -2.7320 o         1 MOL     -0.733222
    153 H65        -6.0360   -0.1370   -1.5620 hn        1 MOL      0.203556
    154 H66        -7.4390   -1.5580    0.5010 h1        1 MOL      0.112226
    155 H67        -6.1500   -3.5400   -0.5660 hc        1 MOL      0.012104
    156 H68        -5.1160   -2.3150   -1.3840 hc        1 MOL      0.012104
    157 H69        -7.0340   -1.6060   -2.6450 hc        1 MOL     -0.002475
    158 H70        -8.1560   -2.5930   -1.7320 hc        1 MOL     -0.002475
    159 N14        -4.5960   -0.9750    1.5910 n         1 MOL     -0.081653
    160 C53        -3.7420   -1.1080    2.7880 c3        1 MOL      0.053660
    161 C54        -4.2800   -0.2280    3.8810 c         1 MOL      0.387229
    162 O24        -4.4150   -0.6030    5.0140 o         1 MOL     -0.555815
    163 C55        -2.2950   -0.5930    2.4010 c3        1 MOL      0.136114
    164 C56        -1.5240   -1.5540    1.5630 c3        1 MOL     -0.029333
    165 C57        -0.2370   -1.0520    0.8780 c         1 MOL      0.842400
    166 O25         0.5520   -1.8250    0.3190 o         1 MOL     -0.748779
    167 O26         0.0700    0.1720    0.9340 o         1 MOL     -0.748779
    168 H71        -4.4140   -0.2510    0.9150 hn        1 MOL      0.104352
    169 H72        -3.6770   -2.1500    3.1020 h1        1 MOL      0.054623
    170 H73        -1.7630   -0.3660    3.3280 hc        1 MOL     -0.020335
    171 H74        -2.4850    0.2820    1.7710 hc        1 MOL     -0.020335
    172 H75        -2.2140   -1.8990    0.8000 hc        1 MOL     -0.041095
    173 H76        -1.2190   -2.3630    2.2200 hc        1 MOL     -0.041095
    174 N15        -4.8350    0.9320    3.5240 n         1 MOL     -0.055765
    175 C58        -5.5850    1.9320    4.3490 c3        1 MOL     -0.223234
    176 H77        -6.5970    2.0390    3.9580 h1        1 MOL      0.088800
    177 H78        -5.6310    1.5890    5.3830 h1        1 MOL      0.088800
    178 H79        -5.0760    2.8940    4.3060 h1        1 MOL      0.088800
    179 H80        -4.7370    1.1290    2.5380 hn        1 MOL      0.033279
    180 Ca1         2.5720    0.0220    0.2030 Ca        1 MOL      1.700138
    181 O27         2.2080    0.3460    2.8670 oh        1 MOL     -1.028644
    182 H81         2.6500    0.8590    3.5510 ho        1 MOL      0.462797
    183 H82         1.6970   -0.3060    3.3620 ho        1 MOL      0.462797
    184 O28         1.5690    0.7090   -2.1470 oh        1 MOL     -1.028644
    185 H83         1.5770    0.0210   -2.8170 ho        1 MOL      0.462797
    186 H84         2.3330    1.2540   -2.3540 ho        1 MOL      0.462797
@<TRIPOS>BOND
     1    1    2 1   
     2    1    4 1   
     3    1    5 1   
     4    1    6 1   
     5    2    3 2   
     6    2    7 1   
     7    7    8 1   
     8    7   15 1   
     9    8    9 1   
    10    8   11 1   
    11    8   16 1   
    12    9   10 2   
    13    9   19 1   
    14   11   12 1   
    15   11   17 1   
    16   11   18 1   
    17   12   13 1   
    18   12   14 1   
    19   19   20 1   
    20   19   27 1   
    21   20   21 1   
    22   20   23 1   
    23   20   28 1   
    24   21   22 2   
    25   21   38 1   
    26   23   24 1   
    27   23   25 1   
    28   23   29 1   
    29   24   26 1   
    30   24   30 1   
    31   24   31 1   
    32   25   32 1   
    33   25   33 1   
    34   25   34 1   
    35   26   35 1   
    36   26   36 1   
    37   26   37 1   
    38   38   39 1   
    39   38   46 1   
    40   39   40 1   
    41   39   42 1   
    42   39   47 1   
    43   40   41 2   
    44   40   50 1   
    45   42   43 1   
    46   42   48 1   
    47   42   49 1   
    48   43   44 1   
    49   43   45 1   
    50   50   51 1   
    51   50   54 1   
    52   51   52 1   
    53   51   55 1   
    54   51   56 1   
    55   52   53 2   
    56   52   57 1   
    57   57   58 1   
    58   57   65 1   
    59   58   59 1   
    60   58   61 1   
    61   58   66 1   
    62   59   60 2   
    63   59   69 1   
    64   61   62 1   
    65   61   67 1   
    66   61   68 1   
    67   62   63 1   
    68   62   64 1   
    69   69   70 1   
    70   69   73 1   
    71   70   71 1   
    72   70   74 1   
    73   70   75 1   
    74   71   72 2   
    75   71   76 1   
    76   76   77 1   
    77   76   85 1   
    78   77   78 1   
    79   77   80 1   
    80   77   86 1   
    81   78   79 2   
    82   78   93 1   
    83   80   81 1   
    84   80   87 1   
    85   80   88 1   
    86   81   82 1   
    87   81   89 1   
    88   81   90 1   
    89   82   83 1   
    90   82   84 2   
    91   83   91 1   
    92   83   92 1   
    93   93   94 1   
    94   93  100 1   
    95   94   95 1   
    96   94   97 1   
    97   94  101 1   
    98   95   96 2   
    99   95  109 1   
   100   97   98 1   
   101   97   99 1   
   102   97  102 1   
   103   98  103 1   
   104   98  104 1   
   105   98  105 1   
   106   99  106 1   
   107   99  107 1   
   108   99  108 1   
   109  109  110 1   
   110  109  117 1   
   111  110  111 1   
   112  110  113 1   
   113  110  118 1   
   114  111  112 2   
   115  111  123 1   
   116  113  114 1   
   117  113  119 1   
   118  113  120 1   
   119  114  115 1   
   120  114  116 2   
   121  115  121 1   
   122  115  122 1   
   123  123  124 1   
   124  123  135 1   
   125  124  125 1   
   126  124  127 1   
   127  124  136 1   
   128  125  126 2   
   129  125  144 1   
   130  127  128 1   
   131  127  137 1   
   132  127  138 1   
   133  128  129 ar  
   134  128  130 ar  
   135  129  131 ar  
   136  129  139 1   
   137  130  132 ar  
   138  130  140 1   
   139  131  133 ar  
   140  131  141 1   
   141  132  133 ar  
   142  132  142 1   
   143  133  134 1   
   144  134  143 1   
   145  144  145 1   
   146  144  153 1   
   147  145  146 1   
   148  145  148 1   
   149  145  154 1   
   150  146  147 2   
   151  146  159 1   
   152  148  149 1   
   153  148  155 1   
   154  148  156 1   
   155  149  150 1   
   156  149  157 1   
   157  149  158 1   
   158  150  151 1   
   159  150  152 1   
   160  159  160 1   
   161  159  168 1   
   162  160  161 1   
   163  160  163 1   
   164  160  169 1   
   165  161  162 2   
   166  161  174 1   
   167  163  164 1   
   168  163  170 1   
   169  163  171 1   
   170  164  165 1   
   171  164  172 1   
   172  164  173 1   
   173  165  166 1   
   174  165  167 1   
   175  174  175 1   
   176  174  179 1   
   177  175  176 1   
   178  175  177 1   
   179  175  178 1   
   180  181  182 1   
   181  181  183 1   
   182  184  185 1   
   183  184  186 1   
@<TRIPOS>SUBSTRUCTURE
     1 MOL         1 TEMP              0 ****  ****    0 ROOT
