@<TRIPOS>MOLECULE
MOL
  186   183     1     0     0
SMALL
resp


@<TRIPOS>ATOM
      1 C1          1.2340   -1.1970    6.7410 c3        1 MOL     -0.349423
      2 C2          1.2110   -1.1960    5.2080 c         1 MOL      0.826606
      3 O1          0.1290   -1.0550    4.6160 o         1 MOL     -0.627291
      4 H1          0.7700   -0.2820    7.1120 hc        1 MOL      0.078031
      5 H2          0.6820   -2.0600    7.1130 hc        1 MOL      0.078031
      6 H3          2.2670   -1.2480    7.0890 hc        1 MOL      0.078031
      7 N1          2.3360   -1.2720    4.5240 n         1 MOL     -0.703165
      8 C3          2.7200   -1.4850    3.1300 c3        1 MOL      0.480385
      9 C4          2.7120   -2.9960    2.7500 c         1 MOL      0.420884
     10 O2          2.9120   -3.7960    3.6370 o         1 MOL     -0.591268
     11 C5          4.1350   -0.9320    2.9320 c3        1 MOL     -0.250340
     12 C6          4.6100   -0.7720    1.4850 c         1 MOL      0.642377
     13 O3          5.7940   -0.4030    1.3760 o         1 MOL     -0.586455
     14 O4          3.7840   -0.9770    0.5870 o         1 MOL     -0.586455
     15 H4          3.1310   -1.3270    5.1460 hn        1 MOL      0.289176
     16 H5          2.0590   -0.9320    2.4740 h1        1 MOL     -0.010051
     17 H6          4.8910   -1.5060    3.4760 hc        1 MOL      0.023513
     18 H7          4.1630    0.0900    3.3180 hc        1 MOL      0.023513
     19 N2          2.3500   -3.3310    1.5210 n         1 MOL     -0.016144
     20 C7          2.1480   -4.7480    1.0460 c3        1 MOL      0.025788
     21 C8          3.0520   -5.0400   -0.0980 c         1 MOL      0.279324
     22 O5          3.6350   -6.1540   -0.1730 o         1 MOL     -0.534385
     23 C9          0.6580   -5.0360    0.7790 c3        1 MOL      0.130993
     24 C10        -0.0630   -4.8980    2.1350 c3        1 MOL      0.250303
     25 C11         0.3220   -6.4330    0.1420 c3        1 MOL     -0.160271
     26 C12         0.3180   -5.8960    3.1890 c3        1 MOL     -0.288778
     27 H8          2.1180   -2.5870    0.8810 hn        1 MOL     -0.141995
     28 H9          2.4580   -5.4260    1.8310 h1        1 MOL      0.068075
     29 H10         0.3250   -4.2900    0.0620 hc        1 MOL     -0.013071
     30 H11        -1.1500   -4.9580    2.0450 hc        1 MOL     -0.042277
     31 H12         0.1010   -3.8690    2.4500 hc        1 MOL     -0.042277
     32 H13         0.6390   -6.4940   -0.9030 hc        1 MOL      0.029012
     33 H14         0.9770   -7.1230    0.6630 hc        1 MOL      0.029012
     34 H15        -0.7160   -6.7770    0.2150 hc        1 MOL      0.029012
     35 H16         0.0790   -6.8680    2.7610 hc        1 MOL      0.045454
     36 H17         1.3630   -5.7570    3.4420 hc        1 MOL      0.045454
     37 H18        -0.3160   -5.7380    4.0610 hc        1 MOL      0.045454
     38 N3          3.2320   -4.0920   -1.0920 n         1 MOL     -0.068126
     39 C13         4.1440   -4.3100   -2.2140 c3        1 MOL      0.069813
     40 C14         5.5450   -3.7180   -2.0000 c         1 MOL      0.419397
     41 O6          6.4240   -3.9020   -2.8850 o         1 MOL     -0.523829
     42 C15         3.4050   -3.9820   -3.5700 c3        1 MOL     -0.237126
     43 C16         3.0340   -2.4680   -3.7160 c         1 MOL      0.840120
     44 O7          2.4360   -2.0850   -4.7800 o         1 MOL     -0.755162
     45 O8          3.1890   -1.6480   -2.8090 o         1 MOL     -0.755162
     46 H19         2.8710   -3.1630   -0.8890 hn        1 MOL      0.075140
     47 H20         4.4480   -5.3500   -2.1880 h1        1 MOL      0.060838
     48 H21         2.4490   -4.5170   -3.6070 hc        1 MOL      0.049979
     49 H22         4.0920   -4.2500   -4.3690 hc        1 MOL      0.049979
     50 N4          5.8390   -3.0350   -0.8540 n         1 MOL     -0.206250
     51 C17         7.2240   -2.6600   -0.4500 c3        1 MOL     -0.142897
     52 C18         7.7560   -1.4750   -1.1720 c         1 MOL      0.519728
     53 O9          8.8600   -1.4990   -1.7480 o         1 MOL     -0.614146
     54 H23         5.0150   -2.7980   -0.3250 hn        1 MOL      0.132779
     55 H24         7.8420   -3.5170   -0.7000 h1        1 MOL      0.082523
     56 H25         7.3550   -2.4830    0.6120 h1        1 MOL      0.082523
     57 N5          7.0030   -0.3910   -1.2020 n         1 MOL     -0.208675
     58 C19         7.3620    0.8470   -1.8700 c3        1 MOL      0.239139
     59 C20         7.4450    2.0500   -0.8850 c         1 MOL      0.258785
     60 O10         7.6870    3.2010   -1.3680 o         1 MOL     -0.545796
     61 C21         6.3870    1.1500   -2.9680 c3        1 MOL     -0.294553
     62 C22         4.8940    1.3300   -2.5480 c         1 MOL      0.818528
     63 O11         3.9200    1.3550   -3.3190 o         1 MOL     -0.733393
     64 O12         4.6710    1.3700   -1.3290 o         1 MOL     -0.733393
     65 H26         6.0790   -0.4030   -0.7780 hn        1 MOL      0.096945
     66 H27         8.4050    0.8430   -2.2120 h1        1 MOL      0.042651
     67 H28         6.5120    0.3060   -3.6360 hc        1 MOL      0.059901
     68 H29         6.7250    2.0480   -3.4990 hc        1 MOL      0.059901
     69 N6          7.2540    1.8560    0.3870 n         1 MOL     -0.119239
     70 C23         7.3660    2.9310    1.4520 c3        1 MOL     -0.170738
     71 C24         6.0330    3.7510    1.6830 c         1 MOL      0.652477
     72 O13         6.0110    4.6840    2.4420 o         1 MOL     -0.635726
     73 H30         7.0390    0.9090    0.6640 hn        1 MOL      0.135048
     74 H31         8.1340    3.6300    1.1510 h1        1 MOL      0.082615
     75 H32         7.5620    2.4800    2.4300 h1        1 MOL      0.082615
     76 N7          4.9050    3.3600    1.1180 n         1 MOL     -0.398390
     77 C25         3.5310    3.9930    1.1620 c3        1 MOL     -0.015418
     78 C26         2.4530    2.9740    1.3070 c         1 MOL      0.606747
     79 O14         2.5210    1.8470    0.9360 o         1 MOL     -0.579452
     80 C27         3.2500    4.8050   -0.1380 c3        1 MOL     -0.080892
     81 C28         4.0880    6.1250   -0.2200 c3        1 MOL     -0.065540
     82 C29         3.9030    6.9600   -1.4870 c         1 MOL      0.651118
     83 N8          4.0840    8.2860   -1.4210 n         1 MOL     -0.800052
     84 O15         3.5120    6.4690   -2.5340 o         1 MOL     -0.529331
     85 H33         5.0200    2.6790    0.3750 hn        1 MOL      0.317533
     86 H34         3.4570    4.6530    2.0250 h1        1 MOL      0.078029
     87 H35         2.2000    5.1080   -0.1220 hc        1 MOL      0.043385
     88 H36         3.3040    4.1630   -1.0200 hc        1 MOL      0.043385
     89 H37         5.1680    6.0180   -0.0960 hc        1 MOL      0.025033
     90 H38         3.7520    6.7450    0.6100 hc        1 MOL      0.025033
     91 H39         4.6000    8.7030   -0.6620 hn        1 MOL      0.338551
     92 H40         4.0950    8.7770   -2.3110 hn        1 MOL      0.338551
     93 N9          1.2870    3.4350    1.8350 n         1 MOL     -0.579562
     94 C30        -0.0180    2.6800    1.8710 c3        1 MOL      0.426426
     95 C31        -0.8800    3.1050    0.6930 c         1 MOL      0.259010
     96 O16        -0.5220    4.0440   -0.0010 o         1 MOL     -0.521322
     97 C32        -0.8130    2.9050    3.1770 c3        1 MOL      0.059459
     98 C33        -1.9080    1.9020    3.5570 c3        1 MOL     -0.309008
     99 C34         0.1470    2.8840    4.4650 c3        1 MOL     -0.309008
    100 H41         1.2920    4.3410    2.2740 hn        1 MOL      0.277464
    101 H42         0.2220    1.6110    1.8460 h1        1 MOL      0.034071
    102 H43        -1.2910    3.8790    3.1280 hc        1 MOL     -0.009809
    103 H44        -2.7740    1.9000    2.9070 hc        1 MOL      0.074790
    104 H45        -1.4990    0.8950    3.5780 hc        1 MOL      0.074790
    105 H46        -2.3990    2.0150    4.5250 hc        1 MOL      0.074790
    106 H47        -0.4320    3.0060    5.3850 hc        1 MOL      0.074790
    107 H48         0.6560    1.9290    4.6030 hc        1 MOL      0.074790
    108 H49         0.8990    3.6640    4.3570 hc        1 MOL      0.074790
    109 N10        -2.0590    2.4720    0.4830 n         1 MOL     -0.131557
    110 C35        -3.1600    3.0460   -0.2880 c3        1 MOL      0.073894
    111 C36        -4.4330    2.3300    0.1160 c         1 MOL      0.266557
    112 O17        -4.4320    1.4080    0.9070 o         1 MOL     -0.249978
    113 C37        -2.8400    2.7820   -1.7790 c3        1 MOL     -0.445028
    114 C38        -3.2160    1.3650   -2.2630 c         1 MOL      0.740181
    115 N11        -2.2920    0.4260   -2.1920 n         1 MOL     -0.829674
    116 O18        -4.3180    1.1660   -2.7740 o         1 MOL     -0.588977
    117 H50        -2.2440    1.6290    1.0090 hn        1 MOL      0.039528
    118 H51        -3.2500    4.1180   -0.1450 h1        1 MOL      0.091158
    119 H52        -1.7730    2.9270   -1.9260 hc        1 MOL      0.132070
    120 H53        -3.3160    3.5690   -2.3690 hc        1 MOL      0.132070
    121 H54        -1.4420    0.6600   -1.6940 hn        1 MOL      0.421111
    122 H55        -2.4860   -0.5140   -2.4920 hn        1 MOL      0.421111
    123 N12        -5.5320    2.6520   -0.5600 n         1 MOL     -0.441143
    124 C39        -6.8080    2.0750   -0.1880 c3        1 MOL      0.299374
    125 C40        -6.8620    0.5750   -0.0310 c         1 MOL      0.431544
    126 O19        -7.4960    0.1040    0.9230 o         1 MOL     -0.488512
    127 C41        -7.9250    2.5000   -1.1650 c3        1 MOL     -0.319190
    128 C42        -9.2910    2.0270   -0.8400 ca        1 MOL      0.243893
    129 C43        -9.8610    2.3300    0.4380 ca        1 MOL     -0.372814
    130 C44       -10.0280    1.2880   -1.8000 ca        1 MOL     -0.372814
    131 C45       -11.1250    1.9120    0.7800 ca        1 MOL     -0.021286
    132 C46       -11.3210    0.7990   -1.4020 ca        1 MOL     -0.021286
    133 C47       -11.9120    1.2250   -0.1700 ca        1 MOL      0.092963
    134 O20       -13.1750    0.7570    0.1400 oh        1 MOL     -0.478294
    135 H56        -5.5330    3.4080   -1.2200 hn        1 MOL      0.276523
    136 H57        -7.0450    2.5470    0.7650 h1        1 MOL     -0.001305
    137 H58        -7.7050    2.2660   -2.2050 hc        1 MOL      0.102861
    138 H59        -7.9950    3.5830   -1.0710 hc        1 MOL      0.102861
    139 H60        -9.1510    2.8980    1.0250 ha        1 MOL      0.175750
    140 H61        -9.6490    1.1660   -2.8060 ha        1 MOL      0.175750
    141 H62       -11.4950    2.0940    1.7810 ha        1 MOL      0.103747
    142 H63       -11.9630    0.1640   -1.9920 ha        1 MOL      0.103747
    143 H64       -13.5860    0.2610   -0.5610 ho        1 MOL      0.361778
    144 N13        -6.3740   -0.2210   -0.9800 n         1 MOL     -0.237144
    145 C48        -6.3130   -1.6450   -0.9270 c3        1 MOL     -0.034416
    146 C49        -5.4200   -2.2990    0.1370 c         1 MOL      0.211459
    147 O21        -5.6730   -3.4120    0.6350 o         1 MOL     -0.483074
    148 C50        -5.7890   -2.1630   -2.2920 c3        1 MOL      0.141347
    149 C51        -6.6460   -1.8820   -3.5020 c3        1 MOL     -0.172801
    150 C52        -6.1280   -2.4640   -4.7940 c         1 MOL      0.690725
    151 O22        -5.0920   -1.9320   -5.2080 o         1 MOL     -0.729920
    152 O23        -6.6630   -3.4120   -5.3170 o         1 MOL     -0.729920
    153 H65        -5.8440    0.2350   -1.7060 hn        1 MOL      0.195823
    154 H66        -7.3210   -2.0480   -0.8040 h1        1 MOL      0.094367
    155 H67        -5.8310   -3.2380   -2.1010 hc        1 MOL     -0.004380
    156 H68        -4.7620   -1.8230   -2.4400 hc        1 MOL     -0.004380
    157 H69        -6.8830   -0.8240   -3.6600 hc        1 MOL     -0.003086
    158 H70        -7.6260   -2.2970   -3.2530 hc        1 MOL     -0.003086
    159 N14        -4.4160   -1.5360    0.5970 n         1 MOL     -0.000027
    160 C53        -3.5530   -1.8880    1.7530 c3        1 MOL     -0.085730
    161 C54        -4.2000   -1.5170    3.1000 c         1 MOL      0.477733
    162 O24        -4.0100   -2.1720    4.1060 o         1 MOL     -0.584447
    163 C55        -2.1560   -1.2470    1.5810 c3        1 MOL     -0.190105
    164 C56        -1.4090   -1.7670    0.3030 c3        1 MOL      0.210878
    165 C57        -0.0470   -1.1840   -0.0620 c         1 MOL      0.386046
    166 O25         0.9360   -1.8960   -0.3840 o         1 MOL     -0.520192
    167 O26         0.0500    0.0650   -0.1360 o         1 MOL     -0.520192
    168 H71        -4.0970   -0.6800    0.1740 hn        1 MOL      0.198579
    169 H72        -3.3760   -2.9610    1.6760 h1        1 MOL      0.099348
    170 H73        -1.5870   -1.4550    2.4860 hc        1 MOL      0.089055
    171 H74        -2.1620   -0.1600    1.4410 hc        1 MOL      0.089055
    172 H75        -2.0910   -1.6900   -0.5400 hc        1 MOL     -0.072027
    173 H76        -1.3470   -2.8420    0.4150 hc        1 MOL     -0.072027
    174 N15        -5.0460   -0.5540    3.0270 n         1 MOL      0.065649
    175 C58        -5.9090   -0.1870    4.1910 c3        1 MOL     -0.275373
    176 H77        -5.4460    0.6310    4.7430 h1        1 MOL      0.095062
    177 H78        -6.8890    0.1260    3.8330 h1        1 MOL      0.095062
    178 H79        -6.0200   -1.0500    4.8470 h1        1 MOL      0.095062
    179 H80        -5.1850   -0.1680    2.1110 hn        1 MOL     -0.091052
    180 Ca1         2.3790    0.2710   -1.2970 Ca        1 MOL      1.680327
    181 O27         1.0810    2.4190   -2.0230 oh        1 MOL     -0.862474
    182 H81         0.5850    2.6720   -2.7960 ho        1 MOL      0.419849
    183 H82         0.7540    3.0030   -1.3320 ho        1 MOL      0.419849
    184 O28         0.7400   -0.3820   -3.2770 oh        1 MOL     -0.862474
    185 H83         1.1760   -1.1660   -3.6030 ho        1 MOL      0.419849
    186 H84         0.7570    0.2290   -4.0130 ho        1 MOL      0.419849
@<TRIPOS>BOND
     1    1    2 1   
     2    1    4 1   
     3    1    5 1   
     4    1    6 1   
     5    2    3 2   
     6    2    7 1   
     7    7    8 1   
     8    7   15 1   
     9    8    9 1   
    10    8   11 1   
    11    8   16 1   
    12    9   10 2   
    13    9   19 1   
    14   11   12 1   
    15   11   17 1   
    16   11   18 1   
    17   12   13 1   
    18   12   14 1   
    19   19   20 1   
    20   19   27 1   
    21   20   21 1   
    22   20   23 1   
    23   20   28 1   
    24   21   22 2   
    25   21   38 1   
    26   23   24 1   
    27   23   25 1   
    28   23   29 1   
    29   24   26 1   
    30   24   30 1   
    31   24   31 1   
    32   25   32 1   
    33   25   33 1   
    34   25   34 1   
    35   26   35 1   
    36   26   36 1   
    37   26   37 1   
    38   38   39 1   
    39   38   46 1   
    40   39   40 1   
    41   39   42 1   
    42   39   47 1   
    43   40   41 2   
    44   40   50 1   
    45   42   43 1   
    46   42   48 1   
    47   42   49 1   
    48   43   44 1   
    49   43   45 1   
    50   50   51 1   
    51   50   54 1   
    52   51   52 1   
    53   51   55 1   
    54   51   56 1   
    55   52   53 2   
    56   52   57 1   
    57   57   58 1   
    58   57   65 1   
    59   58   59 1   
    60   58   61 1   
    61   58   66 1   
    62   59   60 2   
    63   59   69 1   
    64   61   62 1   
    65   61   67 1   
    66   61   68 1   
    67   62   63 1   
    68   62   64 1   
    69   69   70 1   
    70   69   73 1   
    71   70   71 1   
    72   70   74 1   
    73   70   75 1   
    74   71   72 2   
    75   71   76 1   
    76   76   77 1   
    77   76   85 1   
    78   77   78 1   
    79   77   80 1   
    80   77   86 1   
    81   78   79 2   
    82   78   93 1   
    83   80   81 1   
    84   80   87 1   
    85   80   88 1   
    86   81   82 1   
    87   81   89 1   
    88   81   90 1   
    89   82   83 1   
    90   82   84 2   
    91   83   91 1   
    92   83   92 1   
    93   93   94 1   
    94   93  100 1   
    95   94   95 1   
    96   94   97 1   
    97   94  101 1   
    98   95   96 2   
    99   95  109 1   
   100   97   98 1   
   101   97   99 1   
   102   97  102 1   
   103   98  103 1   
   104   98  104 1   
   105   98  105 1   
   106   99  106 1   
   107   99  107 1   
   108   99  108 1   
   109  109  110 1   
   110  109  117 1   
   111  110  111 1   
   112  110  113 1   
   113  110  118 1   
   114  111  112 2   
   115  111  123 1   
   116  113  114 1   
   117  113  119 1   
   118  113  120 1   
   119  114  115 1   
   120  114  116 2   
   121  115  121 1   
   122  115  122 1   
   123  123  124 1   
   124  123  135 1   
   125  124  125 1   
   126  124  127 1   
   127  124  136 1   
   128  125  126 2   
   129  125  144 1   
   130  127  128 1   
   131  127  137 1   
   132  127  138 1   
   133  128  129 ar  
   134  128  130 ar  
   135  129  131 ar  
   136  129  139 1   
   137  130  132 ar  
   138  130  140 1   
   139  131  133 ar  
   140  131  141 1   
   141  132  133 ar  
   142  132  142 1   
   143  133  134 1   
   144  134  143 1   
   145  144  145 1   
   146  144  153 1   
   147  145  146 1   
   148  145  148 1   
   149  145  154 1   
   150  146  147 2   
   151  146  159 1   
   152  148  149 1   
   153  148  155 1   
   154  148  156 1   
   155  149  150 1   
   156  149  157 1   
   157  149  158 1   
   158  150  151 1   
   159  150  152 1   
   160  159  160 1   
   161  159  168 1   
   162  160  161 1   
   163  160  163 1   
   164  160  169 1   
   165  161  162 2   
   166  161  174 1   
   167  163  164 1   
   168  163  170 1   
   169  163  171 1   
   170  164  165 1   
   171  164  172 1   
   172  164  173 1   
   173  165  166 1   
   174  165  167 1   
   175  174  175 1   
   176  174  179 1   
   177  175  176 1   
   178  175  177 1   
   179  175  178 1   
   180  181  182 1   
   181  181  183 1   
   182  184  185 1   
   183  184  186 1   
@<TRIPOS>SUBSTRUCTURE
     1 MOL         1 TEMP              0 ****  ****    0 ROOT
