@<TRIPOS>MOLECULE
MOL
  175   173     1     0     0
SMALL
resp


@<TRIPOS>ATOM
      1 C1         -0.1620   -3.3890    5.7690 c3        1 MOL     -0.436558
      2 C2          0.4400   -3.4940    4.3610 c         1 MOL      0.713323
      3 O1         -0.2690   -3.9550    3.4590 o         1 MOL     -0.556342
      4 H1          0.5300   -2.8540    6.4200 hc        1 MOL      0.104992
      5 H2         -1.1070   -2.8470    5.7200 hc        1 MOL      0.104992
      6 H3         -0.3350   -4.3890    6.1660 hc        1 MOL      0.104992
      7 N1          1.6800   -3.0100    4.1880 n         1 MOL     -0.602551
      8 C3          2.3730   -3.0370    2.8980 c3        1 MOL      0.115392
      9 C4          2.5120   -4.4550    2.2330 c         1 MOL      0.617889
     10 O2          2.6360   -5.4760    2.8820 o         1 MOL     -0.552704
     11 C5          3.6840   -2.2950    3.1190 c3        1 MOL     -0.331689
     12 C6          4.4590   -2.1830    1.7880 c         1 MOL      0.643501
     13 O3          3.7910   -1.7510    0.8090 o         1 MOL     -0.608439
     14 O4          5.6680   -2.5220    1.7960 o         1 MOL     -0.608439
     15 H4          2.1530   -2.3750    4.8240 hn        1 MOL      0.327749
     16 H5          1.8770   -2.3430    2.2140 h1        1 MOL      0.048476
     17 H6          4.3330   -2.8910    3.7750 hc        1 MOL      0.063480
     18 H7          3.5910   -1.2930    3.5210 hc        1 MOL      0.063480
     19 N2          2.5020   -4.4750    0.8510 n         1 MOL     -0.483495
     20 C7          2.8590   -5.5870   -0.0360 c3        1 MOL      0.330578
     21 C8          3.8710   -5.3260   -1.1170 c         1 MOL      0.361963
     22 O5          4.1540   -6.3020   -1.8690 o         1 MOL     -0.566200
     23 C9          1.5180   -6.0260   -0.6350 c3        1 MOL     -0.185055
     24 H8          2.0420   -3.6400    0.5130 hn        1 MOL      0.175896
     25 H9          3.1660   -6.3930    0.6400 h1        1 MOL      0.009760
     26 H10         1.0340   -5.2830   -1.2700 hc        1 MOL      0.042093
     27 H11         1.6210   -6.9420   -1.2230 hc        1 MOL      0.042093
     28 H12         0.9030   -6.3740    0.1950 hc        1 MOL      0.042093
     29 N3          4.3790   -4.0810   -1.2520 n         1 MOL     -0.340457
     30 C10         5.0470   -3.5560   -2.5080 c3        1 MOL      0.276679
     31 C11         6.3230   -2.7470   -2.2340 c         1 MOL      0.172690
     32 O6          7.2870   -2.6660   -3.0150 o         1 MOL     -0.537576
     33 C12         4.1180   -2.7280   -3.3840 c3        1 MOL     -0.112037
     34 C13         3.3290   -1.7230   -2.6120 c         1 MOL      0.677885
     35 O7          3.9120   -0.7720   -2.0350 o         1 MOL     -0.694754
     36 O8          2.1230   -1.6180   -2.6790 o         1 MOL     -0.694754
     37 H13         4.1620   -3.4180   -0.5160 hn        1 MOL      0.235939
     38 H14         5.3470   -4.3820   -3.1500 h1        1 MOL      0.030176
     39 H15         3.5030   -3.3210   -4.0650 hc        1 MOL      0.026222
     40 H16         4.7920   -2.1540   -4.0250 hc        1 MOL      0.026222
     41 N4          6.3640   -2.1080   -1.0850 n         1 MOL      0.156573
     42 C14         7.4780   -1.2120   -0.6590 c3        1 MOL     -0.214038
     43 C15         7.3330    0.2080   -1.2560 c         1 MOL      0.593218
     44 O9          8.4010    0.7890   -1.4270 o         1 MOL     -0.628535
     45 H17         5.6120   -2.2040   -0.4260 hn        1 MOL     -0.116972
     46 H18         8.4390   -1.5890   -1.0110 h1        1 MOL      0.093853
     47 H19         7.3600   -1.2570    0.4260 h1        1 MOL      0.093853
     48 N5          6.1410    0.7540   -1.4810 n         1 MOL     -0.315641
     49 C16         6.0140    1.9960   -2.2350 c3        1 MOL      0.086803
     50 C17         5.8240    3.2450   -1.2920 c         1 MOL      0.310919
     51 O10         5.3210    4.2550   -1.8780 o         1 MOL     -0.477151
     52 C18         4.9180    1.8050   -3.2870 c3        1 MOL     -0.137206
     53 C19         3.5170    1.9600   -2.7490 c         1 MOL      0.517049
     54 N6          2.4790    1.8350   -3.5370 n         1 MOL     -0.572570
     55 O11         3.3080    2.0320   -1.5300 o         1 MOL     -0.482044
     56 H20         5.3440    0.1720   -1.2940 hn        1 MOL      0.252015
     57 H21         6.9450    2.1370   -2.7930 h1        1 MOL      0.094765
     58 H22         5.1860    0.8270   -3.6790 hc        1 MOL      0.046531
     59 H23         5.0360    2.5340   -4.0770 hc        1 MOL      0.046531
     60 H24         2.6410    1.8760   -4.5280 hn        1 MOL      0.302766
     61 H25         1.5390    1.7430   -3.1790 hn        1 MOL      0.302766
     62 N7          6.1520    3.2040    0.0180 n         1 MOL     -0.269250
     63 C20         6.1990    4.4040    0.8410 c3        1 MOL     -0.209970
     64 C21         4.8160    4.9100    1.3780 c         1 MOL      0.482805
     65 O12         4.8560    5.8170    2.1720 o         1 MOL     -0.553697
     66 H26         6.4360    2.3160    0.3960 hn        1 MOL      0.245644
     67 H27         6.6810    5.2320    0.3170 h1        1 MOL      0.126799
     68 H28         6.7850    4.2060    1.7450 h1        1 MOL      0.126799
     69 N8          3.7280    4.3320    0.8600 n         1 MOL     -0.212448
     70 C22         2.3320    4.7750    1.1070 c3        1 MOL     -0.117592
     71 C23         1.2720    3.6780    1.3840 c         1 MOL      0.470265
     72 O13         1.4540    2.6100    0.8830 o         1 MOL     -0.459984
     73 C24         1.8320    5.7670    0.0900 c3        1 MOL      0.549604
     74 C25         2.7480    6.9480   -0.0770 c3        1 MOL     -0.348442
     75 O14         1.7450    5.1540   -1.1760 oh        1 MOL     -0.614484
     76 H29         3.8550    3.5530    0.2280 hn        1 MOL      0.172577
     77 H30         2.3440    5.3640    2.0220 h1        1 MOL      0.041221
     78 H31         0.8190    6.0900    0.3480 h1        1 MOL     -0.071405
     79 H32         1.3730    4.2820   -1.0340 ho        1 MOL      0.348737
     80 H33         3.7320    6.6690   -0.4510 hc        1 MOL      0.083056
     81 H34         2.2810    7.7090   -0.7110 hc        1 MOL      0.083056
     82 H35         2.7920    7.3620    0.9360 hc        1 MOL      0.083056
     83 N9          0.1250    3.9770    1.9960 n         1 MOL     -0.459312
     84 C26        -1.0090    3.0480    1.9170 c3        1 MOL     -0.026895
     85 C27        -1.7770    3.1350    0.5450 c         1 MOL      0.599608
     86 O15        -2.2840    4.2410    0.2540 o         1 MOL     -0.614164
     87 C28        -1.9700    3.2860    3.0810 c3        1 MOL      0.235132
     88 C29        -1.3060    3.0220    4.4300 c3        1 MOL     -0.236260
     89 C30        -3.2690    2.4240    3.0470 c3        1 MOL     -0.124371
     90 C31        -2.0170    3.4560    5.7450 c3        1 MOL     -0.115185
     91 H36        -0.0000    4.8540    2.4920 hn        1 MOL      0.288831
     92 H37        -0.6260    2.0390    2.0220 h1        1 MOL     -0.019745
     93 H38        -2.2990    4.3170    2.9720 hc        1 MOL     -0.017211
     94 H39        -0.4390    3.6670    4.4010 hc        1 MOL      0.077958
     95 H40        -1.0050    2.0080    4.6850 hc        1 MOL      0.077958
     96 H41        -3.0340    1.3660    3.1150 hc        1 MOL      0.023134
     97 H42        -3.9680    2.7160    3.8280 hc        1 MOL      0.023134
     98 H43        -3.8620    2.5830    2.1580 hc        1 MOL      0.023134
     99 H44        -2.5630    4.3900    5.6540 hc        1 MOL      0.030182
    100 H45        -2.7310    2.7850    6.2230 hc        1 MOL      0.030182
    101 H46        -1.2450    3.5210    6.5040 hc        1 MOL      0.030182
    102 N10        -1.9370    2.0060   -0.1310 n         1 MOL     -0.191839
    103 C32        -2.7560    1.7290   -1.3550 c3        1 MOL      0.044364
    104 C33        -4.1880    1.3710   -0.8920 c         1 MOL      0.412443
    105 O16        -4.4270    0.9810    0.2580 o         1 MOL     -0.349090
    106 C34        -2.1220    0.6750   -2.2770 c3        1 MOL     -0.195608
    107 C35        -0.6520    1.0700   -2.5690 c         1 MOL      0.688314
    108 O17         0.1740    0.9970   -1.6330 o         1 MOL     -0.651196
    109 O18        -0.4130    1.2980   -3.7650 o         1 MOL     -0.651196
    110 H47        -1.2910    1.2510    0.0680 hn        1 MOL      0.020315
    111 H48        -2.7690    2.6840   -1.8970 h1        1 MOL      0.053579
    112 H49        -2.8310    0.6200   -3.1040 hc        1 MOL      0.078092
    113 H50        -2.1520   -0.3150   -1.8220 hc        1 MOL      0.078092
    114 N11        -5.1910    1.4930   -1.7340 n         1 MOL     -0.595180
    115 C36        -6.5350    1.1290   -1.4280 c3        1 MOL      0.422324
    116 C37        -6.7070   -0.3970   -1.0600 c         1 MOL      0.234618
    117 O19        -7.3180   -0.6710    0.0020 o         1 MOL     -0.451011
    118 C38        -7.5170    1.7620   -2.4010 c3        1 MOL     -0.252498
    119 C39        -8.9460    1.4500   -2.2010 ca        1 MOL      0.061120
    120 C40        -9.6210    1.9570   -1.0560 ca        1 MOL     -0.135415
    121 C41        -9.5010    0.4800   -3.0460 ca        1 MOL     -0.135415
    122 C42       -11.0010    1.5650   -0.9220 ca        1 MOL     -0.148107
    123 C43       -10.8520    0.1750   -2.9410 ca        1 MOL     -0.148107
    124 C44       -11.6030    0.6830   -1.8360 ca        1 MOL     -0.073082
    125 H51        -5.0250    1.8680   -2.6610 hn        1 MOL      0.312038
    126 H52        -6.7550    1.6230   -0.4830 h1        1 MOL      0.031887
    127 H53        -7.1970    1.4330   -3.3880 hc        1 MOL      0.068455
    128 H54        -7.4580    2.8480   -2.2690 hc        1 MOL      0.068455
    129 H55        -9.1310    2.6300   -0.3640 ha        1 MOL      0.129280
    130 H56        -8.8620    0.0860   -3.8130 ha        1 MOL      0.129280
    131 H57       -11.6830    1.9960   -0.1940 ha        1 MOL      0.114680
    132 H58       -11.2440   -0.5550   -3.6330 ha        1 MOL      0.114680
    133 H59       -12.6340    0.3480   -1.7600 ha        1 MOL      0.095918
    134 N12        -5.9700   -1.3020   -1.7740 n         1 MOL      0.132286
    135 C45        -6.1020   -2.6620   -1.4080 c3        1 MOL      0.031795
    136 C46        -5.4690   -3.0220   -0.0440 c         1 MOL      0.214904
    137 O20        -5.7800   -3.9960    0.5930 o         1 MOL     -0.507095
    138 C47        -5.3780   -3.4590   -2.4580 c3        1 MOL     -0.170247
    139 C48        -5.7340   -2.6940   -3.6950 c3        1 MOL     -0.027901
    140 C49        -5.6110   -1.2680   -3.1920 c3        1 MOL     -0.064957
    141 H60        -7.1630   -2.8710   -1.3450 h1        1 MOL      0.055475
    142 H61        -4.3070   -3.3290   -2.2990 hc        1 MOL      0.094420
    143 H62        -5.7320   -4.4790   -2.6300 hc        1 MOL      0.094420
    144 H63        -4.9390   -2.9400   -4.4080 hc        1 MOL      0.033386
    145 H64        -6.7210   -2.9730   -4.0790 hc        1 MOL      0.033386
    146 H65        -4.5750   -0.9340   -3.2310 h1        1 MOL      0.014359
    147 H66        -6.2570   -0.7130   -3.8670 h1        1 MOL      0.014359
    148 N13        -4.6180   -2.1450    0.4240 n         1 MOL      0.162544
    149 C50        -3.9690   -2.1540    1.7230 c3        1 MOL     -0.187845
    150 C51        -4.7850   -1.4530    2.8560 c         1 MOL      0.493432
    151 O21        -4.6220   -1.8240    4.0290 o         1 MOL     -0.575750
    152 C52        -2.5960   -1.4690    1.5110 c3        1 MOL      0.026608
    153 C53        -1.6800   -2.3430    0.6440 c3        1 MOL     -0.043971
    154 C54        -0.3260   -1.5930    0.5490 c         1 MOL      0.507346
    155 O22         0.6860   -2.1410    0.1050 o         1 MOL     -0.594053
    156 O23        -0.2140   -0.3620    0.7590 o         1 MOL     -0.594053
    157 H67        -4.5820   -1.2780   -0.0770 hn        1 MOL     -0.154909
    158 H68        -3.7130   -3.1810    1.9770 h1        1 MOL      0.116529
    159 H69        -2.2080   -1.2000    2.4980 hc        1 MOL      0.057528
    160 H70        -2.7460   -0.4710    1.0950 hc        1 MOL      0.057528
    161 H71        -2.0600   -2.6030   -0.3350 hc        1 MOL      0.047359
    162 H72        -1.6540   -3.3530    1.0600 hc        1 MOL      0.047359
    163 N14        -5.4460   -0.3340    2.5410 n         1 MOL     -0.103264
    164 C55        -6.5480    0.2740    3.3110 c3        1 MOL     -0.146510
    165 H73        -7.4500    0.2950    2.6990 h1        1 MOL      0.062225
    166 H74        -6.7320   -0.3150    4.2090 h1        1 MOL      0.062225
    167 H75        -6.2770    1.2920    3.5920 h1        1 MOL      0.062225
    168 H76        -5.2560    0.0680    1.6350 hn        1 MOL      0.128716
    169 Ca1         2.1710    0.0100   -0.3640 Ca        1 MOL      1.658076
    170 O24         3.8470    1.2230    1.2770 oh        1 MOL     -0.674963
    171 H77         4.7790    1.1840    1.5100 ho        1 MOL      0.337043
    172 H78         3.4500    1.7610    1.9560 ho        1 MOL      0.337043
    173 O25         1.6170    0.2650    2.7010 oh        1 MOL     -0.674963
    174 H79         0.8050    0.1000    2.2180 ho        1 MOL      0.337043
    175 H80         1.3460    0.3220    3.6260 ho        1 MOL      0.337043
@<TRIPOS>BOND
     1    1    2 1   
     2    1    4 1   
     3    1    5 1   
     4    1    6 1   
     5    2    3 2   
     6    2    7 1   
     7    7    8 1   
     8    7   15 1   
     9    8    9 1   
    10    8   11 1   
    11    8   16 1   
    12    9   10 2   
    13    9   19 1   
    14   11   12 1   
    15   11   17 1   
    16   11   18 1   
    17   12   13 1   
    18   12   14 1   
    19   19   20 1   
    20   19   24 1   
    21   20   21 1   
    22   20   23 1   
    23   20   25 1   
    24   21   22 2   
    25   21   29 1   
    26   23   26 1   
    27   23   27 1   
    28   23   28 1   
    29   29   30 1   
    30   29   37 1   
    31   30   31 1   
    32   30   33 1   
    33   30   38 1   
    34   31   32 2   
    35   31   41 1   
    36   33   34 1   
    37   33   39 1   
    38   33   40 1   
    39   34   35 1   
    40   34   36 1   
    41   41   42 1   
    42   41   45 1   
    43   42   43 1   
    44   42   46 1   
    45   42   47 1   
    46   43   44 2   
    47   43   48 1   
    48   48   49 1   
    49   48   56 1   
    50   49   50 1   
    51   49   52 1   
    52   49   57 1   
    53   50   51 2   
    54   50   62 1   
    55   52   53 1   
    56   52   58 1   
    57   52   59 1   
    58   53   54 1   
    59   53   55 2   
    60   54   60 1   
    61   54   61 1   
    62   62   63 1   
    63   62   66 1   
    64   63   64 1   
    65   63   67 1   
    66   63   68 1   
    67   64   65 2   
    68   64   69 1   
    69   69   70 1   
    70   69   76 1   
    71   70   71 1   
    72   70   73 1   
    73   70   77 1   
    74   71   72 2   
    75   71   83 1   
    76   73   74 1   
    77   73   75 1   
    78   73   78 1   
    79   74   80 1   
    80   74   81 1   
    81   74   82 1   
    82   75   79 1   
    83   83   84 1   
    84   83   91 1   
    85   84   85 1   
    86   84   87 1   
    87   84   92 1   
    88   85   86 2   
    89   85  102 1   
    90   87   88 1   
    91   87   89 1   
    92   87   93 1   
    93   88   90 1   
    94   88   94 1   
    95   88   95 1   
    96   89   96 1   
    97   89   97 1   
    98   89   98 1   
    99   90   99 1   
   100   90  100 1   
   101   90  101 1   
   102  102  103 1   
   103  102  110 1   
   104  103  104 1   
   105  103  106 1   
   106  103  111 1   
   107  104  105 2   
   108  104  114 1   
   109  106  107 1   
   110  106  112 1   
   111  106  113 1   
   112  107  108 1   
   113  107  109 1   
   114  114  115 1   
   115  114  125 1   
   116  115  116 1   
   117  115  118 1   
   118  115  126 1   
   119  116  117 2   
   120  116  134 1   
   121  118  119 1   
   122  118  127 1   
   123  118  128 1   
   124  119  120 ar  
   125  119  121 ar  
   126  120  122 ar  
   127  120  129 1   
   128  121  123 ar  
   129  121  130 1   
   130  122  124 ar  
   131  122  131 1   
   132  123  124 ar  
   133  123  132 1   
   134  124  133 1   
   135  134  135 1   
   136  134  140 1   
   137  135  136 1   
   138  135  138 1   
   139  135  141 1   
   140  136  137 2   
   141  136  148 1   
   142  138  139 1   
   143  138  142 1   
   144  138  143 1   
   145  139  140 1   
   146  139  144 1   
   147  139  145 1   
   148  140  146 1   
   149  140  147 1   
   150  148  149 1   
   151  148  157 1   
   152  149  150 1   
   153  149  152 1   
   154  149  158 1   
   155  150  151 2   
   156  150  163 1   
   157  152  153 1   
   158  152  159 1   
   159  152  160 1   
   160  153  154 1   
   161  153  161 1   
   162  153  162 1   
   163  154  155 1   
   164  154  156 1   
   165  163  164 1   
   166  163  168 1   
   167  164  165 1   
   168  164  166 1   
   169  164  167 1   
   170  170  171 1   
   171  170  172 1   
   172  173  174 1   
   173  173  175 1   
@<TRIPOS>SUBSTRUCTURE
     1 MOL         1 TEMP              0 ****  ****    0 ROOT
