@<TRIPOS>MOLECULE
MOL
  189   185     1     0     0
SMALL
resp


@<TRIPOS>ATOM
      1 C1         -0.4370    0.5510    6.9330 c3        1 MOL     -0.333636
      2 C2         -0.5970    0.7860    5.3960 c         1 MOL      0.785184
      3 O1          0.3530    1.2170    4.7440 o         1 MOL     -0.619360
      4 H1         -0.9060   -0.3950    7.2060 hc        1 MOL      0.085409
      5 H2          0.6230    0.5180    7.1880 hc        1 MOL      0.085409
      6 H3         -0.9160    1.3640    7.4770 hc        1 MOL      0.085409
      7 N1         -1.7980    0.5100    4.8000 n         1 MOL     -0.699041
      8 C3         -2.1520    0.8600    3.4440 c3        1 MOL      0.207462
      9 C4         -2.2770    2.4080    3.3490 c         1 MOL      0.528466
     10 O2         -2.9700    3.0610    4.1100 o         1 MOL     -0.546723
     11 C5         -3.4540    0.2050    3.0780 c3        1 MOL     -0.182155
     12 C6         -3.9660    0.3020    1.6840 c         1 MOL      0.638874
     13 O3         -5.1190   -0.2100    1.4940 o         1 MOL     -0.627483
     14 O4         -3.3210    0.8400    0.7660 o         1 MOL     -0.627483
     15 H4         -2.4900    0.0760    5.3960 hn        1 MOL      0.329062
     16 H5         -1.4080    0.4550    2.7650 h1        1 MOL      0.046880
     17 H6         -4.2100    0.5780    3.7860 hc        1 MOL      0.050870
     18 H7         -3.4110   -0.8620    3.2610 hc        1 MOL      0.050870
     19 N2         -1.5670    3.0580    2.3880 n         1 MOL     -0.267254
     20 C7         -1.6570    4.4980    2.1790 c3        1 MOL     -0.031757
     21 C8         -2.8740    4.9330    1.3690 c         1 MOL      0.469088
     22 O5         -3.3340    6.0530    1.5110 o         1 MOL     -0.568730
     23 C9         -0.3290    5.0770    1.5880 c3        1 MOL     -0.061775
     24 C10        -0.0270    4.6190    0.0970 c3        1 MOL      0.300686
     25 C11         0.9180    5.5040   -0.7240 c3        1 MOL     -0.297095
     26 C12         0.7280    4.9320   -2.1400 c3        1 MOL      0.219640
     27 N3          1.9090    5.3370   -2.9110 n4        1 MOL     -0.428777
     28 H8         -1.0850    2.5080    1.6940 hn        1 MOL      0.163537
     29 H9         -1.7970    4.9820    3.1460 h1        1 MOL      0.109619
     30 H10         0.4870    4.8260    2.2530 hc        1 MOL      0.025547
     31 H11        -0.3690    6.1650    1.5440 hc        1 MOL      0.025547
     32 H12        -1.0050    4.4850   -0.3770 hc        1 MOL     -0.055606
     33 H13         0.4980    3.6580    0.0850 hc        1 MOL     -0.055606
     34 H14         1.9360    5.4470   -0.3570 hc        1 MOL      0.072926
     35 H15         0.6330    6.5570   -0.7790 hc        1 MOL      0.072926
     36 H16        -0.1410    5.4810   -2.5270 hx        1 MOL      0.058740
     37 H17         0.5450    3.8580   -2.1940 hx        1 MOL      0.058740
     38 H18         2.7210    5.1240   -2.3380 hn        1 MOL      0.322503
     39 H19         1.9960    4.7830   -3.7550 hn        1 MOL      0.322503
     40 H20         1.9030    6.3500   -2.9770 hn        1 MOL      0.322503
     41 N4         -3.4560    4.1310    0.4530 n         1 MOL     -0.294705
     42 C13        -4.5000    4.4700   -0.5450 c3        1 MOL      0.087843
     43 C14        -5.6680    3.5110   -0.7340 c         1 MOL      0.506916
     44 O6         -6.3280    3.3910   -1.8060 o         1 MOL     -0.499929
     45 C15        -3.8510    4.6700   -1.8770 c3        1 MOL     -0.318371
     46 C16        -3.0110    3.4370   -2.3630 c         1 MOL      0.833474
     47 O7         -2.4090    3.5230   -3.5000 o         1 MOL     -0.767280
     48 O8         -2.7110    2.4420   -1.6910 o         1 MOL     -0.767280
     49 H21        -3.0910    3.1920    0.5500 hn        1 MOL      0.178636
     50 H22        -4.9990    5.3860   -0.2370 h1        1 MOL      0.093442
     51 H23        -3.1570    5.5130   -1.8800 hc        1 MOL      0.083761
     52 H24        -4.6210    4.9000   -2.6090 hc        1 MOL      0.083761
     53 N5         -6.0530    2.8550    0.3440 n         1 MOL     -0.475469
     54 C17        -7.3600    2.1800    0.4780 c3        1 MOL     -0.033161
     55 C18        -7.7640    1.0510   -0.4170 c         1 MOL      0.472136
     56 O9         -8.9700    0.9120   -0.6570 o         1 MOL     -0.563080
     57 H25        -5.5440    2.8080    1.2190 hn        1 MOL      0.314037
     58 H26        -8.2120    2.8620    0.4160 h1        1 MOL      0.076119
     59 H27        -7.3690    1.7010    1.4530 h1        1 MOL      0.076119
     60 N6         -6.7670    0.3230   -0.9880 n         1 MOL     -0.124195
     61 C19        -6.9820   -0.6570   -2.0130 c3        1 MOL     -0.007351
     62 C20        -6.9540   -2.1260   -1.4580 c         1 MOL      0.360892
     63 O10        -7.2180   -3.1150   -2.1570 o         1 MOL     -0.493662
     64 C21        -6.0370   -0.5870   -3.2400 c3        1 MOL     -0.186166
     65 C22        -4.5970   -0.6190   -2.8270 c         1 MOL      0.789982
     66 O11        -3.6290   -0.3640   -3.5630 o         1 MOL     -0.764670
     67 O12        -4.3340   -0.9530   -1.6590 o         1 MOL     -0.764670
     68 H28        -5.8290    0.5260   -0.6560 hn        1 MOL      0.164291
     69 H29        -8.0030   -0.4930   -2.3660 h1        1 MOL      0.102393
     70 H30        -6.3280    0.3570   -3.7070 hc        1 MOL      0.066618
     71 H31        -6.2350   -1.3700   -3.9740 hc        1 MOL      0.066618
     72 N7         -6.5700   -2.2270   -0.1570 n         1 MOL     -0.232955
     73 C23        -6.5440   -3.5520    0.4740 c3        1 MOL     -0.240284
     74 C24        -5.3400   -4.3790    0.1870 c         1 MOL      0.574540
     75 O13        -5.2800   -5.5000    0.6650 o         1 MOL     -0.596571
     76 H32        -6.2990   -1.4090    0.3810 hn        1 MOL      0.205359
     77 H33        -7.4030   -4.1620    0.1950 h1        1 MOL      0.125197
     78 H34        -6.5940   -3.3280    1.5370 h1        1 MOL      0.125197
     79 N8         -4.3040   -3.7930   -0.3650 n         1 MOL     -0.310091
     80 C25        -3.0720   -4.4090   -0.8080 c3        1 MOL     -0.023226
     81 C26        -1.8600   -3.5710   -0.2970 c         1 MOL      0.548731
     82 O14        -1.9100   -2.3480   -0.2290 o         1 MOL     -0.652822
     83 C27        -3.0170   -4.6760   -2.3370 c3        1 MOL      0.450918
     84 C28        -1.6660   -5.2990   -2.6890 c3        1 MOL     -0.498912
     85 O15        -4.0020   -5.5090   -2.8310 oh        1 MOL     -0.619724
     86 H35        -4.4080   -2.7910   -0.4640 hn        1 MOL      0.285579
     87 H36        -3.0450   -5.3980   -0.3640 h1        1 MOL      0.027376
     88 H37        -3.0690   -3.6590   -2.7530 h1        1 MOL      0.046286
     89 H38        -3.8700   -6.3440   -2.3860 ho        1 MOL      0.402029
     90 H39        -1.6040   -6.3320   -2.3420 hc        1 MOL      0.111843
     91 H40        -1.5380   -5.2250   -3.7690 hc        1 MOL      0.111843
     92 H41        -0.8700   -4.6820   -2.2870 hc        1 MOL      0.111843
     93 N9         -0.6650   -4.1940   -0.0300 n         1 MOL     -0.450351
     94 C29         0.5490   -3.5390    0.5910 c3        1 MOL      0.160713
     95 C30         1.6940   -3.7850   -0.3960 c         1 MOL      0.330737
     96 O16         1.9700   -4.9520   -0.7600 o         1 MOL     -0.549060
     97 C31         0.8190   -4.0010    2.0870 c3        1 MOL      0.030011
     98 C32        -0.2510   -3.2850    2.8380 c3        1 MOL      0.017897
     99 C33         2.2870   -3.6260    2.4320 c3        1 MOL     -0.041898
    100 C34        -0.2120   -3.6740    4.3400 c3        1 MOL     -0.241534
    101 H42        -0.6560   -5.2020    0.0430 hn        1 MOL      0.266080
    102 H43         0.4230   -2.4580    0.6490 h1        1 MOL      0.062835
    103 H44         0.7390   -5.0850    2.1210 hc        1 MOL      0.027480
    104 H45        -1.1710   -3.6250    2.3670 hc        1 MOL      0.038844
    105 H46        -0.0910   -2.2060    2.8050 hc        1 MOL      0.038844
    106 H47         2.3140   -2.5410    2.3910 hc        1 MOL      0.001365
    107 H48         2.5500   -4.1150    3.3770 hc        1 MOL      0.001365
    108 H49         2.9770   -4.0720    1.7120 hc        1 MOL      0.001365
    109 H50        -1.1500   -3.6380    4.8850 hc        1 MOL      0.056367
    110 H51         0.1270   -4.7020    4.4740 hc        1 MOL      0.056367
    111 H52         0.4890   -3.0330    4.8760 hc        1 MOL      0.056367
    112 N10         2.3610   -2.7170   -0.6890 n         1 MOL      0.018122
    113 C35         3.5510   -2.6410   -1.4900 c3        1 MOL     -0.025031
    114 C36         4.8340   -2.5400   -0.6240 c         1 MOL      0.350454
    115 O17         4.7610   -2.2070    0.6010 o         1 MOL     -0.307976
    116 C37         3.5610   -1.3660   -2.4090 c3        1 MOL      0.291980
    117 C38         2.3250   -1.3790   -3.3720 c3        1 MOL     -0.655078
    118 O18         3.2980   -0.2560   -1.5380 oh        1 MOL     -0.593113
    119 H53         2.0240   -1.8070   -0.4090 hn        1 MOL      0.040291
    120 H54         3.7050   -3.4720   -2.1780 h1        1 MOL      0.048018
    121 H55         4.4930   -1.2980   -2.9780 h1        1 MOL      0.018048
    122 H56         2.3420   -0.3140   -1.4900 ho        1 MOL      0.370934
    123 H57         1.3680   -1.6710   -2.9390 hc        1 MOL      0.185018
    124 H58         2.1840   -0.4600   -3.9290 hc        1 MOL      0.185018
    125 H59         2.4990   -2.2070   -4.0690 hc        1 MOL      0.185018
    126 N11         6.0060   -2.6810   -1.2300 n         1 MOL     -0.375639
    127 C39         7.3110   -2.3690   -0.5430 c3        1 MOL     -0.064106
    128 C40         7.4240   -1.0240    0.2200 c         1 MOL      0.363136
    129 O19         8.0700   -0.9490    1.2910 o         1 MOL     -0.491877
    130 C41         8.4560   -2.4940   -1.5690 c3        1 MOL      0.204750
    131 C42         8.5380   -3.9130   -2.1930 c3        1 MOL     -0.381207
    132 O20         8.1700   -1.5560   -2.6070 oh        1 MOL     -0.666018
    133 H60         6.0340   -2.8300   -2.2250 hn        1 MOL      0.308843
    134 H61         7.4650   -3.0930    0.2670 h1        1 MOL      0.147213
    135 H62         9.3870   -2.2360   -1.0670 h1        1 MOL      0.075542
    136 H63         8.8080   -1.6680   -3.3230 ho        1 MOL      0.433299
    137 H64         7.6390   -3.9690   -2.8060 hc        1 MOL      0.117796
    138 H65         9.4040   -4.0710   -2.8290 hc        1 MOL      0.117796
    139 H66         8.4880   -4.6190   -1.3590 hc        1 MOL      0.117796
    140 N12         6.7540    0.0060   -0.2750 n         1 MOL     -0.284176
    141 C43         6.6980    1.3970    0.3210 c3        1 MOL     -0.102157
    142 C44         5.6660    1.4920    1.4310 c         1 MOL      0.491419
    143 O21         5.7470    2.4720    2.1410 o         1 MOL     -0.563175
    144 C45         6.5810    2.4810   -0.7200 c3        1 MOL      0.116263
    145 C46         7.8270    2.4700   -1.5950 c3        1 MOL      0.012225
    146 C47         7.9730    3.8210   -2.3210 c3        1 MOL     -0.105128
    147 C48         9.3350    3.6820   -2.9350 c3        1 MOL      0.063842
    148 N13         9.5930    4.7260   -3.9310 n4        1 MOL     -0.225127
    149 H67         6.4270   -0.1960   -1.2140 hn        1 MOL      0.286095
    150 H68         7.6770    1.5940    0.7610 h1        1 MOL      0.129062
    151 H69         6.4930    3.4940   -0.3370 hc        1 MOL     -0.018783
    152 H70         5.6980    2.2930   -1.3320 hc        1 MOL     -0.018783
    153 H71         7.8790    1.7080   -2.3740 hc        1 MOL      0.009626
    154 H72         8.7090    2.3670   -0.9600 hc        1 MOL      0.009626
    155 H73         7.9980    4.6730   -1.6390 hc        1 MOL      0.049563
    156 H74         7.1470    3.9720   -3.0250 hc        1 MOL      0.049563
    157 H75         9.4530    2.7020   -3.3930 hx        1 MOL      0.083918
    158 H76        10.0680    3.6650   -2.1270 hx        1 MOL      0.083918
    159 H77         9.0060    4.6530   -4.7510 hn        1 MOL      0.254802
    160 H78         9.3120    5.5880   -3.4930 hn        1 MOL      0.254802
    161 H79        10.5660    4.8610   -4.1860 hn        1 MOL      0.254802
    162 N14         4.7950    0.5560    1.5190 n         1 MOL     -0.193393
    163 C49         3.7100    0.4800    2.5550 c3        1 MOL     -0.072744
    164 C50         4.0220   -0.5640    3.6380 c         1 MOL      0.459143
    165 O22         3.4900   -0.5270    4.7470 o         1 MOL     -0.524868
    166 C51         2.4060    0.0820    1.9190 c3        1 MOL      0.205912
    167 C52         1.7290    1.1890    1.1220 c3        1 MOL     -0.086191
    168 C53         0.5280    0.6820    0.2950 c         1 MOL      0.805215
    169 O23         0.7230   -0.0260   -0.6700 o         1 MOL     -0.782582
    170 O24        -0.6060    1.1000    0.5220 o         1 MOL     -0.782582
    171 H80         4.7410   -0.2210    0.8820 hn        1 MOL      0.129809
    172 H81         3.5800    1.4230    3.0710 h1        1 MOL      0.120478
    173 H82         1.6780   -0.2300    2.6720 hc        1 MOL      0.031684
    174 H83         2.5860   -0.7300    1.2080 hc        1 MOL      0.031684
    175 H84         2.5120    1.6140    0.4850 hc        1 MOL     -0.032710
    176 H85         1.3880    1.9470    1.8160 hc        1 MOL     -0.032710
    177 N15         4.8950   -1.5150    3.3440 n         1 MOL     -0.229067
    178 C54         5.4050   -2.5980    4.2780 c3        1 MOL     -0.353147
    179 H86         4.6650   -3.3950    4.3480 h1        1 MOL      0.142677
    180 H87         6.3390   -3.0040    3.8890 h1        1 MOL      0.142677
    181 H88         5.5770   -2.1750    5.2670 h1        1 MOL      0.142677
    182 H89         5.0090   -1.7040    2.3620 hn        1 MOL      0.161328
    183 Ca1        -2.0590    0.0070   -1.3660 Ca        1 MOL      1.816475
    184 O25        -1.3550   -2.0090   -3.2230 oh        1 MOL     -0.860756
    185 H90        -2.1830   -1.6560   -3.5690 ho        1 MOL      0.405402
    186 H91        -0.9240   -2.3970   -3.9800 ho        1 MOL      0.405402
    187 O26        -0.5630    1.2850   -3.1550 oh        1 MOL     -0.860756
    188 H92        -1.0990    2.0880   -3.1780 ho        1 MOL      0.405402
    189 H93         0.3370    1.5980   -3.1130 ho        1 MOL      0.405402
@<TRIPOS>BOND
     1    1    2 1   
     2    1    4 1   
     3    1    5 1   
     4    1    6 1   
     5    2    3 2   
     6    2    7 1   
     7    7    8 1   
     8    7   15 1   
     9    8    9 1   
    10    8   11 1   
    11    8   16 1   
    12    9   10 2   
    13    9   19 1   
    14   11   12 1   
    15   11   17 1   
    16   11   18 1   
    17   12   13 1   
    18   12   14 1   
    19   19   20 1   
    20   19   28 1   
    21   20   21 1   
    22   20   23 1   
    23   20   29 1   
    24   21   22 2   
    25   21   41 1   
    26   23   24 1   
    27   23   30 1   
    28   23   31 1   
    29   24   25 1   
    30   24   32 1   
    31   24   33 1   
    32   25   26 1   
    33   25   34 1   
    34   25   35 1   
    35   26   27 1   
    36   26   36 1   
    37   26   37 1   
    38   27   38 1   
    39   27   39 1   
    40   27   40 1   
    41   41   42 1   
    42   41   49 1   
    43   42   43 1   
    44   42   45 1   
    45   42   50 1   
    46   43   44 2   
    47   43   53 1   
    48   45   46 1   
    49   45   51 1   
    50   45   52 1   
    51   46   47 1   
    52   46   48 1   
    53   53   54 1   
    54   53   57 1   
    55   54   55 1   
    56   54   58 1   
    57   54   59 1   
    58   55   56 2   
    59   55   60 1   
    60   60   61 1   
    61   60   68 1   
    62   61   62 1   
    63   61   64 1   
    64   61   69 1   
    65   62   63 2   
    66   62   72 1   
    67   64   65 1   
    68   64   70 1   
    69   64   71 1   
    70   65   66 1   
    71   65   67 1   
    72   72   73 1   
    73   72   76 1   
    74   73   74 1   
    75   73   77 1   
    76   73   78 1   
    77   74   75 2   
    78   74   79 1   
    79   79   80 1   
    80   79   86 1   
    81   80   81 1   
    82   80   83 1   
    83   80   87 1   
    84   81   82 2   
    85   81   93 1   
    86   83   84 1   
    87   83   85 1   
    88   83   88 1   
    89   84   90 1   
    90   84   91 1   
    91   84   92 1   
    92   85   89 1   
    93   93   94 1   
    94   93  101 1   
    95   94   95 1   
    96   94   97 1   
    97   94  102 1   
    98   95   96 2   
    99   95  112 1   
   100   97   98 1   
   101   97   99 1   
   102   97  103 1   
   103   98  100 1   
   104   98  104 1   
   105   98  105 1   
   106   99  106 1   
   107   99  107 1   
   108   99  108 1   
   109  100  109 1   
   110  100  110 1   
   111  100  111 1   
   112  112  113 1   
   113  112  119 1   
   114  113  114 1   
   115  113  116 1   
   116  113  120 1   
   117  114  115 2   
   118  114  126 1   
   119  116  117 1   
   120  116  118 1   
   121  116  121 1   
   122  117  123 1   
   123  117  124 1   
   124  117  125 1   
   125  118  122 1   
   126  126  127 1   
   127  126  133 1   
   128  127  128 1   
   129  127  130 1   
   130  127  134 1   
   131  128  129 2   
   132  128  140 1   
   133  130  131 1   
   134  130  132 1   
   135  130  135 1   
   136  131  137 1   
   137  131  138 1   
   138  131  139 1   
   139  132  136 1   
   140  140  141 1   
   141  140  149 1   
   142  141  142 1   
   143  141  144 1   
   144  141  150 1   
   145  142  143 2   
   146  142  162 1   
   147  144  145 1   
   148  144  151 1   
   149  144  152 1   
   150  145  146 1   
   151  145  153 1   
   152  145  154 1   
   153  146  147 1   
   154  146  155 1   
   155  146  156 1   
   156  147  148 1   
   157  147  157 1   
   158  147  158 1   
   159  148  159 1   
   160  148  160 1   
   161  148  161 1   
   162  162  163 1   
   163  162  171 1   
   164  163  164 1   
   165  163  166 1   
   166  163  172 1   
   167  164  165 2   
   168  164  177 1   
   169  166  167 1   
   170  166  173 1   
   171  166  174 1   
   172  167  168 1   
   173  167  175 1   
   174  167  176 1   
   175  168  169 1   
   176  168  170 1   
   177  177  178 1   
   178  177  182 1   
   179  178  179 1   
   180  178  180 1   
   181  178  181 1   
   182  184  185 1   
   183  184  186 1   
   184  187  188 1   
   185  187  189 1   
@<TRIPOS>SUBSTRUCTURE
     1 MOL         1 TEMP              0 ****  ****    0 ROOT
