@<TRIPOS>MOLECULE
MOL
  189   185     1     0     0
SMALL
resp


@<TRIPOS>ATOM
      1 C1          0.9420    2.1910    5.5320 c3        1 MOL     -0.365403
      2 C2          0.1670    2.2670    4.1640 c         1 MOL      0.563077
      3 O1          0.6380    2.8110    3.2060 o         1 MOL     -0.489498
      4 H1          2.0030    2.3660    5.3570 hc        1 MOL      0.101861
      5 H2          0.5560    2.9500    6.2120 hc        1 MOL      0.101861
      6 H3          0.8060    1.2040    5.9730 hc        1 MOL      0.101861
      7 N1         -1.0680    1.7470    4.1560 n         1 MOL     -0.406399
      8 C3         -1.7420    1.7540    2.9310 c3        1 MOL     -0.005857
      9 C4         -2.1550    3.1400    2.4380 c         1 MOL      0.430487
     10 O2         -2.9920    3.8820    3.0540 o         1 MOL     -0.564547
     11 C5         -2.9000    0.7720    3.1030 c3        1 MOL     -0.085346
     12 C6         -3.5420    0.3390    1.7570 c         1 MOL      0.713881
     13 O3         -3.0300    0.8240    0.6790 o         1 MOL     -0.689698
     14 O4         -4.5180   -0.3980    1.7860 o         1 MOL     -0.689698
     15 H4         -1.5220    1.4650    5.0150 hn        1 MOL      0.301842
     16 H5         -1.0070    1.3260    2.2510 h1        1 MOL      0.051815
     17 H6         -3.7090    1.1470    3.7330 hc        1 MOL      0.041186
     18 H7         -2.6540   -0.1640    3.5960 hc        1 MOL      0.041186
     19 N2         -1.5400    3.5310    1.3230 n         1 MOL     -0.126377
     20 C7         -1.6500    4.9230    0.6640 c3        1 MOL     -0.029376
     21 C8         -2.5640    5.0830   -0.4890 c         1 MOL      0.544972
     22 O5         -2.5610    6.1610   -1.0940 o         1 MOL     -0.564452
     23 C9         -0.2420    5.4190    0.5470 c3        1 MOL      0.032995
     24 C10         0.2430    5.9180    1.9500 c3        1 MOL      0.148351
     25 C11         1.6520    6.4700    1.8590 c3        1 MOL     -0.254359
     26 C12         2.7710    5.4080    1.9500 c3        1 MOL     -0.069489
     27 N3          2.7290    4.6960    3.2210 n4        1 MOL     -0.292540
     28 H8         -0.8670    2.9170    0.8810 hn        1 MOL      0.163687
     29 H9         -2.1530    5.5580    1.3930 h1        1 MOL      0.060670
     30 H10        -0.0750    6.2560   -0.1300 hc        1 MOL      0.012508
     31 H11         0.3550    4.5840    0.1900 hc        1 MOL      0.012508
     32 H12         0.1230    5.1160    2.6850 hc        1 MOL     -0.017793
     33 H13        -0.4460    6.7070    2.2360 hc        1 MOL     -0.017793
     34 H14         1.7720    7.2170    2.6410 hc        1 MOL      0.091645
     35 H15         1.7800    6.9620    0.8930 hc        1 MOL      0.091645
     36 H16         3.7260    5.8980    1.7700 hx        1 MOL      0.110424
     37 H17         2.7830    4.6430    1.1720 hx        1 MOL      0.110424
     38 H18         3.5090    4.0830    3.3910 hn        1 MOL      0.294758
     39 H19         2.5880    5.2950    4.0200 hn        1 MOL      0.294758
     40 H20         1.9700    4.0180    3.2040 hn        1 MOL      0.294758
     41 N4         -3.2690    3.9700   -0.9440 n         1 MOL     -0.406911
     42 C13        -4.4320    4.0160   -1.8380 c3        1 MOL     -0.011140
     43 C14        -5.5860    3.1530   -1.2640 c         1 MOL      0.526166
     44 O6         -6.4160    2.7900   -2.0630 o         1 MOL     -0.493368
     45 C15        -4.1490    3.7790   -3.3040 c3        1 MOL     -0.146908
     46 C16        -3.4430    2.3730   -3.4370 c         1 MOL      0.707517
     47 O7         -2.8510    2.1010   -4.5510 o         1 MOL     -0.696917
     48 O8         -3.4310    1.5820   -2.4390 o         1 MOL     -0.696917
     49 H21        -2.8990    3.1050   -0.5850 hn        1 MOL      0.236360
     50 H22        -4.8870    4.9920   -1.6910 h1        1 MOL      0.089489
     51 H23        -3.4750    4.4310   -3.8510 hc        1 MOL      0.060178
     52 H24        -5.0750    3.8810   -3.8720 hc        1 MOL      0.060178
     53 N5         -5.6020    2.7290    0.0560 n         1 MOL     -0.492532
     54 C17        -6.9270    2.1440    0.5270 c3        1 MOL      0.001503
     55 C18        -7.4760    0.8790   -0.0260 c         1 MOL      0.357538
     56 O9         -8.6630    0.5610    0.1810 o         1 MOL     -0.530893
     57 H25        -4.9200    2.9910    0.7490 hn        1 MOL      0.277840
     58 H26        -7.7540    2.8570    0.5400 h1        1 MOL      0.081991
     59 H27        -6.8760    1.8900    1.5920 h1        1 MOL      0.081991
     60 N6         -6.6140    0.0890   -0.7500 n         1 MOL     -0.090215
     61 C19        -7.1000   -0.9850   -1.5260 c3        1 MOL     -0.019223
     62 C20        -7.3690   -2.2480   -0.6750 c         1 MOL      0.386062
     63 O10        -8.2070   -3.1010   -1.0000 o         1 MOL     -0.553908
     64 C21        -6.2080   -1.2310   -2.7520 c3        1 MOL     -0.201766
     65 C22        -4.7740   -1.6570   -2.4660 c         1 MOL      0.718590
     66 O11        -3.9500   -1.7170   -3.3830 o         1 MOL     -0.671601
     67 O12        -4.2710   -1.8530   -1.3250 o         1 MOL     -0.671601
     68 H28        -5.6360    0.3110   -0.7590 hn        1 MOL      0.167588
     69 H29        -8.0480   -0.7200   -2.0000 h1        1 MOL      0.104082
     70 H30        -6.1380   -0.2840   -3.2720 hc        1 MOL      0.072452
     71 H31        -6.6560   -1.9640   -3.4310 hc        1 MOL      0.072452
     72 N7         -6.7240   -2.4120    0.4610 n         1 MOL     -0.154560
     73 C23        -6.7330   -3.6420    1.2850 c3        1 MOL     -0.141347
     74 C24        -5.3520   -4.2830    1.3840 c         1 MOL      0.511141
     75 O13        -5.2380   -5.4460    1.8810 o         1 MOL     -0.584764
     76 H32        -5.9730   -1.7550    0.6560 hn        1 MOL      0.178306
     77 H33        -7.3820   -4.4210    0.8840 h1        1 MOL      0.102871
     78 H34        -7.0520   -3.2760    2.2690 h1        1 MOL      0.102871
     79 N8         -4.3150   -3.7200    0.7610 n         1 MOL     -0.201895
     80 C25        -2.9820   -4.4010    0.6540 c3        1 MOL     -0.460198
     81 C26        -1.8710   -3.3470    0.8310 c         1 MOL      0.809304
     82 O14        -1.9270   -2.2300    0.3780 o         1 MOL     -0.733981
     83 C27        -2.8040   -5.0730   -0.7540 c3        1 MOL      0.504917
     84 C28        -3.5880   -6.3890   -0.8150 c3        1 MOL     -0.470122
     85 O15        -3.2470   -4.3100   -1.8100 oh        1 MOL     -0.567000
     86 H35        -4.3710   -2.7670    0.4110 hn        1 MOL      0.240738
     87 H36        -2.7850   -5.1060    1.4680 h1        1 MOL      0.168587
     88 H37        -1.7940   -5.4540   -0.8710 h1        1 MOL     -0.010959
     89 H38        -3.7750   -3.6030   -1.4440 ho        1 MOL      0.371894
     90 H39        -4.6570   -6.1820   -0.8010 hc        1 MOL      0.121785
     91 H40        -3.4330   -6.9800   -1.7310 hc        1 MOL      0.121785
     92 H41        -3.3530   -7.0760    0.0040 hc        1 MOL      0.121785
     93 N9         -0.7300   -3.8610    1.2920 n         1 MOL     -0.583447
     94 C29         0.4280   -3.1270    1.5180 c3        1 MOL      0.034408
     95 C30         1.5790   -3.5890    0.6420 c         1 MOL      0.464050
     96 O16         1.8330   -4.8310    0.5580 o         1 MOL     -0.567860
     97 C31         0.8170   -3.0370    2.9940 c3        1 MOL      0.078890
     98 C32        -0.3280   -3.0540    4.0860 c3        1 MOL      0.080433
     99 C33         1.8090   -1.8210    3.1800 c3        1 MOL     -0.484157
    100 C34         0.0750   -3.0940    5.5480 c3        1 MOL     -0.151319
    101 H42        -0.7870   -4.7740    1.7180 hn        1 MOL      0.308507
    102 H43         0.2860   -2.0630    1.2930 h1        1 MOL      0.134065
    103 H44         1.5540   -3.8160    3.1910 hc        1 MOL      0.031591
    104 H45        -0.9530   -3.9370    3.9750 hc        1 MOL      0.010601
    105 H46        -0.9560   -2.1640    4.0040 hc        1 MOL      0.010601
    106 H47         2.6570   -2.0150    2.5400 hc        1 MOL      0.098181
    107 H48         1.3580   -0.8330    3.1430 hc        1 MOL      0.098181
    108 H49         2.2010   -1.9160    4.1900 hc        1 MOL      0.098181
    109 H50        -0.8670   -2.9790    6.0890 hc        1 MOL      0.039148
    110 H51         0.6100   -4.0040    5.8040 hc        1 MOL      0.039148
    111 H52         0.6750   -2.2760    5.9360 hc        1 MOL      0.039148
    112 N10         2.4100   -2.7820   -0.0170 n         1 MOL     -0.027327
    113 C35         3.5800   -3.1690   -0.8000 c3        1 MOL      0.016653
    114 C36         4.9050   -2.9380   -0.0940 c         1 MOL      0.288361
    115 O17         4.9800   -2.3360    0.9700 o         1 MOL     -0.350383
    116 C37         3.6930   -2.4130   -2.2050 c3        1 MOL      0.010740
    117 C38         2.4310   -2.4000   -2.9870 c3        1 MOL     -0.267258
    118 O18         4.1330   -1.0960   -2.0500 oh        1 MOL     -0.358364
    119 H53         2.0980   -1.8240    0.0580 hn        1 MOL      0.076877
    120 H54         3.4650   -4.2290   -1.0000 h1        1 MOL      0.093797
    121 H55         4.4370   -2.9260   -2.8220 h1        1 MOL      0.075449
    122 H56         3.7440   -0.5560   -2.7530 ho        1 MOL      0.342403
    123 H57         1.7380   -1.7010   -2.5090 hc        1 MOL      0.089448
    124 H58         2.4520   -2.2080   -4.0560 hc        1 MOL      0.089448
    125 H59         1.9090   -3.3480   -2.8290 hc        1 MOL      0.089448
    126 N11         6.0410   -3.4650   -0.6130 n         1 MOL     -0.261532
    127 C39         7.3600   -2.9770   -0.1800 c3        1 MOL     -0.136599
    128 C40         7.5570   -1.4310   -0.3210 c         1 MOL      0.381161
    129 O19         8.4940   -0.9040    0.3850 o         1 MOL     -0.517609
    130 C41         8.5160   -3.5890   -0.9130 c3        1 MOL      0.357032
    131 C42         8.6830   -5.1100   -0.7500 c3        1 MOL     -0.498089
    132 O20         8.2470   -3.5920   -2.3040 oh        1 MOL     -0.673703
    133 H60         5.9860   -3.9350   -1.5110 hn        1 MOL      0.267072
    134 H61         7.4760   -3.2280    0.8760 h1        1 MOL      0.134292
    135 H62         9.4120   -3.0560   -0.6150 h1        1 MOL      0.060920
    136 H63         8.8770   -4.1750   -2.7060 ho        1 MOL      0.427553
    137 H64         9.7500   -5.2640   -0.9070 hc        1 MOL      0.132605
    138 H65         8.3200   -5.4610    0.2160 hc        1 MOL      0.132605
    139 H66         8.0570   -5.6680   -1.4470 hc        1 MOL      0.132605
    140 N12         6.8010   -0.6750   -1.1350 n         1 MOL     -0.111472
    141 C43         6.9090    0.8340   -1.2310 c3        1 MOL     -0.300514
    142 C44         6.1840    1.4800   -0.0460 c         1 MOL      0.451173
    143 O21         6.7510    2.4060    0.5430 o         1 MOL     -0.513199
    144 C45         6.2390    1.2630   -2.6170 c3        1 MOL      0.128028
    145 C46         6.8490    2.6850   -2.9410 c3        1 MOL     -0.031853
    146 C47         6.5630    3.1890   -4.3010 c3        1 MOL     -0.063176
    147 C48         5.0900    3.5680   -4.5610 c3        1 MOL      0.022220
    148 N13         4.7770    3.9200   -5.9740 n4        1 MOL     -0.385188
    149 H67         6.0140   -1.1210   -1.5860 hn        1 MOL      0.086800
    150 H68         7.9660    1.0920   -1.2540 h1        1 MOL      0.181669
    151 H69         5.1820    1.4990   -2.5100 hc        1 MOL     -0.024226
    152 H70         6.3460    0.5230   -3.3990 hc        1 MOL     -0.024226
    153 H71         7.9320    2.6260   -2.8610 hc        1 MOL      0.047638
    154 H72         6.4930    3.4210   -2.2180 hc        1 MOL      0.047638
    155 H73         6.7730    2.3520   -4.9760 hc        1 MOL      0.041984
    156 H74         7.2590    3.9770   -4.5800 hc        1 MOL      0.041984
    157 H75         4.8720    4.4090   -3.9090 hx        1 MOL      0.094401
    158 H76         4.4380    2.7240   -4.3450 hx        1 MOL      0.094401
    159 H77         4.9700    3.1230   -6.5550 hn        1 MOL      0.326408
    160 H78         3.8390    4.2680   -6.0720 hn        1 MOL      0.326408
    161 H79         5.3750    4.6790   -6.2610 hn        1 MOL      0.326408
    162 N14         4.9530    0.9970    0.1650 n         1 MOL     -0.073745
    163 C49         4.0320    1.4980    1.2020 c3        1 MOL     -0.311158
    164 C50         4.5670    1.2180    2.5890 c         1 MOL      0.513004
    165 O22         4.2720    2.0270    3.4470 o         1 MOL     -0.574076
    166 C51         2.6660    0.8610    0.9940 c3        1 MOL     -0.282142
    167 C52         1.9780    1.4890   -0.2590 c3        1 MOL      0.052919
    168 C53         0.6230    0.9100   -0.5390 c         1 MOL      0.561084
    169 O23        -0.3320    1.7060   -0.6110 o         1 MOL     -0.659899
    170 O24         0.3900   -0.3150   -0.6360 o         1 MOL     -0.659899
    171 H80         4.6820    0.2760   -0.4870 hn        1 MOL      0.278534
    172 H81         3.9440    2.5600    0.9870 h1        1 MOL      0.099727
    173 H82         2.0270    1.2320    1.7990 hc        1 MOL      0.169805
    174 H83         2.6950   -0.2170    0.9460 hc        1 MOL      0.169805
    175 H84         2.6060    1.3380   -1.1310 hc        1 MOL     -0.037980
    176 H85         1.8860    2.5720   -0.2200 hc        1 MOL     -0.037980
    177 N15         5.3510    0.1480    2.7820 n         1 MOL     -0.088265
    178 C54         6.1530   -0.2170    3.9540 c3        1 MOL     -0.235107
    179 H86         7.2070   -0.0310    3.7450 h1        1 MOL      0.104542
    180 H87         5.8410    0.3820    4.8090 h1        1 MOL      0.104542
    181 H88         6.0100   -1.2750    4.1780 h1        1 MOL      0.104542
    182 H89         5.4120   -0.5730    2.0670 hn        1 MOL      0.152671
    183 Ca1        -2.1500   -0.3300   -1.3280 Ca        1 MOL      1.743837
    184 O25        -1.1250    0.2020   -3.9230 oh        1 MOL     -0.853317
    185 H90        -1.8400    0.7890   -4.1610 ho        1 MOL      0.392210
    186 H91        -0.9430   -0.2930   -4.7230 ho        1 MOL      0.392210
    187 O26        -1.3200   -2.5450   -2.8200 oh        1 MOL     -0.853317
    188 H92        -0.7390   -2.6770   -3.5800 ho        1 MOL      0.392210
    189 H93        -1.8980   -3.3080   -2.8320 ho        1 MOL      0.392210
@<TRIPOS>BOND
     1    1    2 1   
     2    1    4 1   
     3    1    5 1   
     4    1    6 1   
     5    2    3 2   
     6    2    7 1   
     7    7    8 1   
     8    7   15 1   
     9    8    9 1   
    10    8   11 1   
    11    8   16 1   
    12    9   10 2   
    13    9   19 1   
    14   11   12 1   
    15   11   17 1   
    16   11   18 1   
    17   12   13 1   
    18   12   14 1   
    19   19   20 1   
    20   19   28 1   
    21   20   21 1   
    22   20   23 1   
    23   20   29 1   
    24   21   22 2   
    25   21   41 1   
    26   23   24 1   
    27   23   30 1   
    28   23   31 1   
    29   24   25 1   
    30   24   32 1   
    31   24   33 1   
    32   25   26 1   
    33   25   34 1   
    34   25   35 1   
    35   26   27 1   
    36   26   36 1   
    37   26   37 1   
    38   27   38 1   
    39   27   39 1   
    40   27   40 1   
    41   41   42 1   
    42   41   49 1   
    43   42   43 1   
    44   42   45 1   
    45   42   50 1   
    46   43   44 2   
    47   43   53 1   
    48   45   46 1   
    49   45   51 1   
    50   45   52 1   
    51   46   47 1   
    52   46   48 1   
    53   53   54 1   
    54   53   57 1   
    55   54   55 1   
    56   54   58 1   
    57   54   59 1   
    58   55   56 2   
    59   55   60 1   
    60   60   61 1   
    61   60   68 1   
    62   61   62 1   
    63   61   64 1   
    64   61   69 1   
    65   62   63 2   
    66   62   72 1   
    67   64   65 1   
    68   64   70 1   
    69   64   71 1   
    70   65   66 1   
    71   65   67 1   
    72   72   73 1   
    73   72   76 1   
    74   73   74 1   
    75   73   77 1   
    76   73   78 1   
    77   74   75 2   
    78   74   79 1   
    79   79   80 1   
    80   79   86 1   
    81   80   81 1   
    82   80   83 1   
    83   80   87 1   
    84   81   82 2   
    85   81   93 1   
    86   83   84 1   
    87   83   85 1   
    88   83   88 1   
    89   84   90 1   
    90   84   91 1   
    91   84   92 1   
    92   85   89 1   
    93   93   94 1   
    94   93  101 1   
    95   94   95 1   
    96   94   97 1   
    97   94  102 1   
    98   95   96 2   
    99   95  112 1   
   100   97   98 1   
   101   97   99 1   
   102   97  103 1   
   103   98  100 1   
   104   98  104 1   
   105   98  105 1   
   106   99  106 1   
   107   99  107 1   
   108   99  108 1   
   109  100  109 1   
   110  100  110 1   
   111  100  111 1   
   112  112  113 1   
   113  112  119 1   
   114  113  114 1   
   115  113  116 1   
   116  113  120 1   
   117  114  115 2   
   118  114  126 1   
   119  116  117 1   
   120  116  118 1   
   121  116  121 1   
   122  117  123 1   
   123  117  124 1   
   124  117  125 1   
   125  118  122 1   
   126  126  127 1   
   127  126  133 1   
   128  127  128 1   
   129  127  130 1   
   130  127  134 1   
   131  128  129 2   
   132  128  140 1   
   133  130  131 1   
   134  130  132 1   
   135  130  135 1   
   136  131  137 1   
   137  131  138 1   
   138  131  139 1   
   139  132  136 1   
   140  140  141 1   
   141  140  149 1   
   142  141  142 1   
   143  141  144 1   
   144  141  150 1   
   145  142  143 2   
   146  142  162 1   
   147  144  145 1   
   148  144  151 1   
   149  144  152 1   
   150  145  146 1   
   151  145  153 1   
   152  145  154 1   
   153  146  147 1   
   154  146  155 1   
   155  146  156 1   
   156  147  148 1   
   157  147  157 1   
   158  147  158 1   
   159  148  159 1   
   160  148  160 1   
   161  148  161 1   
   162  162  163 1   
   163  162  171 1   
   164  163  164 1   
   165  163  166 1   
   166  163  172 1   
   167  164  165 2   
   168  164  177 1   
   169  166  167 1   
   170  166  173 1   
   171  166  174 1   
   172  167  168 1   
   173  167  175 1   
   174  167  176 1   
   175  168  169 1   
   176  168  170 1   
   177  177  178 1   
   178  177  182 1   
   179  178  179 1   
   180  178  180 1   
   181  178  181 1   
   182  184  185 1   
   183  184  186 1   
   184  187  188 1   
   185  187  189 1   
@<TRIPOS>SUBSTRUCTURE
     1 MOL         1 TEMP              0 ****  ****    0 ROOT
