@<TRIPOS>MOLECULE
MOL
  189   185     1     0     0
SMALL
resp


@<TRIPOS>ATOM
      1 C1          0.0030   -3.8550    5.9300 c3        1 MOL     -0.444005
      2 C2          0.9480   -3.4220    4.7570 c         1 MOL      0.699660
      3 O1          1.5700   -2.3390    4.7590 o         1 MOL     -0.602154
      4 H1         -0.1370   -4.9350    5.9030 hc        1 MOL      0.116620
      5 H2          0.4510   -3.5710    6.8820 hc        1 MOL      0.116620
      6 H3         -0.9620   -3.3610    5.8210 hc        1 MOL      0.116620
      7 N1          1.1390   -4.2670    3.7640 n         1 MOL     -0.550124
      8 C3          1.9730   -3.9240    2.5810 c3        1 MOL      0.299604
      9 C4          1.8790   -5.0680    1.5960 c         1 MOL      0.423720
     10 O2          2.0570   -6.2280    1.9790 o         1 MOL     -0.598875
     11 C5          3.4290   -3.7730    2.8900 c3        1 MOL     -0.509096
     12 C6          4.1810   -3.1350    1.7110 c         1 MOL      0.806857
     13 O3          3.6130   -2.6190    0.6890 o         1 MOL     -0.685429
     14 O4          5.4020   -2.9360    1.9630 o         1 MOL     -0.685429
     15 H4          0.6120   -5.1270    3.8470 hn        1 MOL      0.301057
     16 H5          1.5110   -3.0050    2.2120 h1        1 MOL     -0.038413
     17 H6          3.8160   -4.7700    3.1210 hc        1 MOL      0.147804
     18 H7          3.4120   -3.0700    3.7240 hc        1 MOL      0.147804
     19 N2          1.6360   -4.7530    0.3810 n         1 MOL     -0.061075
     20 C7          1.4050   -5.6460   -0.7860 c3        1 MOL     -0.150854
     21 C8          2.2620   -5.2920   -2.0350 c         1 MOL      0.427032
     22 O5          2.0870   -5.9390   -3.0980 o         1 MOL     -0.545063
     23 C9         -0.0690   -5.7540   -1.1500 c3        1 MOL      0.271168
     24 C10        -0.5680   -4.4300   -1.8060 c3        1 MOL     -0.038650
     25 C11        -0.9120   -6.0380    0.1130 c3        1 MOL     -0.175045
     26 C12        -2.1060   -4.3610   -2.0730 c3        1 MOL     -0.230861
     27 H8          1.5560   -3.7480    0.3150 hn        1 MOL      0.070761
     28 H9          1.5530   -6.6780   -0.4530 h1        1 MOL      0.085782
     29 H10        -0.2020   -6.5840   -1.8510 hc        1 MOL     -0.044056
     30 H11        -0.0470   -4.2460   -2.7500 hc        1 MOL      0.056146
     31 H12        -0.4540   -3.6960   -1.0140 hc        1 MOL      0.056146
     32 H13        -0.7570   -7.0410    0.5040 hc        1 MOL      0.022130
     33 H14        -0.7270   -5.2400    0.8320 hc        1 MOL      0.022130
     34 H15        -1.9630   -6.1030   -0.1790 hc        1 MOL      0.022130
     35 H16        -2.4130   -5.3040   -2.5230 hc        1 MOL      0.060370
     36 H17        -2.7090   -4.0260   -1.2360 hc        1 MOL      0.060370
     37 H18        -2.2840   -3.6770   -2.9160 hc        1 MOL      0.060370
     38 N3          3.1530   -4.2890   -1.9350 n         1 MOL     -0.306164
     39 C13         3.9740   -3.8400   -3.0730 c3        1 MOL     -0.047840
     40 C14         5.3500   -3.2570   -2.7560 c         1 MOL      0.390890
     41 O6          6.0750   -2.8330   -3.6960 o         1 MOL     -0.558859
     42 C15         3.1430   -2.8420   -3.8770 c3        1 MOL     -0.237128
     43 C16         2.7690   -1.5910   -3.1960 c         1 MOL      0.758675
     44 O7          3.2070   -1.2850   -2.0960 o         1 MOL     -0.696189
     45 O8          1.7910   -1.0020   -3.7010 o         1 MOL     -0.696189
     46 H19         3.2440   -3.8800   -1.0130 hn        1 MOL      0.204678
     47 H20         4.0840   -4.7550   -3.6550 h1        1 MOL      0.117968
     48 H21         2.2800   -3.4430   -4.1530 hc        1 MOL      0.087790
     49 H22         3.5740   -2.6240   -4.8560 hc        1 MOL      0.087790
     50 N4          5.7620   -3.1160   -1.5300 n         1 MOL     -0.209046
     51 C17         6.9740   -2.4740   -1.0370 c3        1 MOL     -0.200082
     52 C18         7.2060   -0.9700   -1.3550 c         1 MOL      0.553460
     53 O9          8.3960   -0.5840   -1.2740 o         1 MOL     -0.621056
     54 H23         5.0430   -3.3670   -0.8740 hn        1 MOL      0.167397
     55 H24         7.8320   -3.0290   -1.4190 h1        1 MOL      0.110607
     56 H25         7.0060   -2.5530    0.0460 h1        1 MOL      0.110607
     57 N5          6.1970   -0.2030   -1.8500 n         1 MOL     -0.192035
     58 C19         6.4440    1.1260   -2.4590 c3        1 MOL     -0.033299
     59 C20         6.8990    2.1930   -1.4560 c         1 MOL      0.460283
     60 O10         7.3080    3.2720   -1.9150 o         1 MOL     -0.557327
     61 C21         5.2500    1.6010   -3.2730 c3        1 MOL     -0.215257
     62 C22         3.9790    1.9160   -2.4370 c         1 MOL      0.777774
     63 O11         3.9320    1.5940   -1.2400 o         1 MOL     -0.714545
     64 O12         2.9620    2.3360   -3.0870 o         1 MOL     -0.714545
     65 H26         5.2550   -0.5660   -1.8370 hn        1 MOL      0.228598
     66 H27         7.2410    0.9990   -3.1910 h1        1 MOL      0.087232
     67 H28         4.9580    0.8050   -3.9630 hc        1 MOL      0.062126
     68 H29         5.4990    2.5070   -3.8230 hc        1 MOL      0.062126
     69 N6          6.8420    2.0350   -0.1280 n         1 MOL     -0.257248
     70 C23         7.0200    3.0320    0.9040 c3        1 MOL     -0.009903
     71 C24         5.8400    4.0560    1.1970 c         1 MOL      0.441169
     72 O13         6.0920    5.0980    1.7960 o         1 MOL     -0.560213
     73 H30         6.7600    1.0760    0.1920 hn        1 MOL      0.218674
     74 H31         8.0010    3.4980    0.8930 h1        1 MOL      0.045740
     75 H32         7.1140    2.5080    1.8520 h1        1 MOL      0.045740
     76 N7          4.6150    3.7030    0.7980 n         1 MOL     -0.248514
     77 C25         3.4130    4.3450    1.2750 c3        1 MOL     -0.016742
     78 C26         2.3780    3.2920    1.6400 c         1 MOL      0.591885
     79 O14         2.4020    2.2030    1.1300 o         1 MOL     -0.537256
     80 C27         2.8280    5.3630    0.2530 c3        1 MOL     -0.011369
     81 C28         3.8300    6.4600   -0.0020 c3        1 MOL     -0.232969
     82 C29         3.3240    7.5580   -0.8950 c         1 MOL      0.621876
     83 N8          3.1870    7.3350   -2.1570 n         1 MOL     -0.748634
     84 O15         2.9900    8.6490   -0.4090 o         1 MOL     -0.611068
     85 H33         4.5020    2.8650    0.2530 hn        1 MOL      0.157559
     86 H34         3.7340    4.8880    2.1630 h1        1 MOL      0.059547
     87 H35         1.8670    5.7130    0.6210 hc        1 MOL      0.062358
     88 H36         2.5620    4.8620   -0.6770 hc        1 MOL      0.062358
     89 H37         4.7320    6.1490   -0.5370 hc        1 MOL      0.099953
     90 H38         4.1900    6.9720    0.8970 hc        1 MOL      0.099953
     91 H39         3.3650    6.4300   -2.5650 hn        1 MOL      0.352411
     92 H40         2.6430    8.0510   -2.6320 hn        1 MOL      0.352411
     93 N9          1.4400    3.7070    2.4840 n         1 MOL     -0.683274
     94 C30         0.2520    2.9540    2.7060 c3        1 MOL      0.231875
     95 C31        -0.7650    3.3180    1.6630 c         1 MOL      0.602072
     96 O16        -0.8500    4.4870    1.3180 o         1 MOL     -0.633431
     97 C32        -0.3140    2.9020    4.1680 c3        1 MOL      0.120651
     98 C33        -0.9830    4.1430    4.6090 c3        1 MOL     -0.172334
     99 C34        -1.2540    1.7080    4.4740 c3        1 MOL     -0.172334
    100 H41         1.3170    4.7020    2.6570 hn        1 MOL      0.318295
    101 H42         0.5270    1.9220    2.4720 h1        1 MOL      0.075683
    102 H43         0.5930    2.7790    4.7520 hc        1 MOL     -0.005120
    103 H44        -0.4370    5.0760    4.4640 hc        1 MOL      0.031327
    104 H45        -1.9300    4.2940    4.0820 hc        1 MOL      0.031327
    105 H46        -1.1410    4.0800    5.6840 hc        1 MOL      0.031327
    106 H47        -2.1720    1.7510    3.8850 hc        1 MOL      0.031327
    107 H48        -0.7290    0.7730    4.2730 hc        1 MOL      0.031327
    108 H49        -1.5410    1.8080    5.5170 hc        1 MOL      0.031327
    109 N10        -1.5070    2.3580    1.1210 n         1 MOL     -0.095431
    110 C35        -2.5820    2.5040    0.1510 c3        1 MOL      0.055777
    111 C36        -3.9680    2.3550    0.8740 c         1 MOL      0.181555
    112 O17        -4.0000    1.7960    1.9680 o         1 MOL     -0.361228
    113 C37        -2.4010    1.4640   -0.9690 c3        1 MOL     -0.237357
    114 C38        -3.4360    1.5690   -2.1480 c         1 MOL      0.598436
    115 N11        -3.6460    2.6830   -2.7880 n         1 MOL     -0.735535
    116 O18        -4.1250    0.5840   -2.4080 o         1 MOL     -0.491079
    117 H50        -1.1710    1.4370    1.3580 hn        1 MOL     -0.088493
    118 H51        -2.6190    3.4700   -0.3640 h1        1 MOL      0.025199
    119 H52        -2.4380    0.4940   -0.4810 hc        1 MOL      0.126558
    120 H53        -1.3920    1.6450   -1.3530 hc        1 MOL      0.126558
    121 H54        -3.1340    3.5170   -2.5410 hn        1 MOL      0.350646
    122 H55        -4.2880    2.6440   -3.5600 hn        1 MOL      0.350646
    123 N12        -5.0790    2.8080    0.2780 n         1 MOL     -0.180466
    124 C39        -6.4420    2.5390    0.7520 c3        1 MOL      0.034785
    125 C40        -6.9000    1.1000    0.9760 c         1 MOL      0.501786
    126 O19        -7.5910    0.8440    1.9200 o         1 MOL     -0.550133
    127 C41        -7.3620    3.2290   -0.1790 c3        1 MOL     -0.216052
    128 C42        -7.1970    2.7790   -1.6520 ca        1 MOL      0.029064
    129 C43        -7.9200    1.7180   -2.1670 ca        1 MOL     -0.118283
    130 C44        -6.5150    3.6890   -2.4700 ca        1 MOL     -0.118283
    131 C45        -7.8610    1.4450   -3.5520 ca        1 MOL     -0.351100
    132 C46        -6.5360    3.3930   -3.8900 ca        1 MOL     -0.351100
    133 C47        -7.2390    2.3180   -4.4330 ca        1 MOL      0.494422
    134 O20        -7.3270    2.1510   -5.7700 oh        1 MOL     -0.594338
    135 H56        -4.9030    3.2470   -0.6060 hn        1 MOL      0.159863
    136 H57        -6.5550    2.9400    1.7560 h1        1 MOL      0.071013
    137 H58        -7.1600    4.2810   -0.0370 hc        1 MOL      0.073189
    138 H59        -8.3820    3.0750    0.1840 hc        1 MOL      0.073189
    139 H60        -8.4550    1.0460   -1.5210 ha        1 MOL      0.122546
    140 H61        -6.1240    4.6450   -2.1470 ha        1 MOL      0.122546
    141 H62        -8.3190    0.5310   -3.9090 ha        1 MOL      0.154423
    142 H63        -5.9470    4.0510   -4.5010 ha        1 MOL      0.154423
    143 H64        -7.6930    1.2890   -5.9990 ho        1 MOL      0.441960
    144 N13        -6.3990    0.1410    0.1380 n         1 MOL     -0.327307
    145 C48        -6.6300   -1.3790    0.2000 c3        1 MOL     -0.242681
    146 C49        -5.7490   -2.0530    1.2650 c         1 MOL      0.449007
    147 O21        -5.9920   -3.1240    1.7740 o         1 MOL     -0.527116
    148 C50        -6.4890   -2.0050   -1.2170 c3        1 MOL      0.242510
    149 C51        -7.7330   -1.9820   -2.0980 c3        1 MOL     -0.157069
    150 C52        -7.5010   -2.8080   -3.3410 c         1 MOL      0.639458
    151 O22        -8.2920   -3.7640   -3.5280 o         1 MOL     -0.717309
    152 O23        -6.5110   -2.5840   -4.0780 o         1 MOL     -0.717309
    153 H65        -6.0650    0.5960   -0.6980 hn        1 MOL      0.393413
    154 H66        -7.6350   -1.4990    0.6020 h1        1 MOL      0.127397
    155 H67        -6.2080   -3.0410   -1.0490 hc        1 MOL     -0.008891
    156 H68        -5.7090   -1.4600   -1.7540 hc        1 MOL     -0.008891
    157 H69        -8.0020   -0.9770   -2.4290 hc        1 MOL     -0.005620
    158 H70        -8.6150   -2.4130   -1.6260 hc        1 MOL     -0.005620
    159 N14        -4.6680   -1.3540    1.5940 n         1 MOL     -0.160516
    160 C53        -3.7850   -1.7770    2.7620 c3        1 MOL     -0.095215
    161 C54        -4.2500   -1.0490    4.0360 c         1 MOL      0.479804
    162 O24        -3.9390   -1.5580    5.1070 o         1 MOL     -0.556780
    163 C55        -2.2860   -1.3370    2.4130 c3        1 MOL      0.047705
    164 C56        -1.6650   -1.8140    1.0650 c3        1 MOL     -0.192493
    165 C57        -0.3330   -1.1740    0.6190 c         1 MOL      0.714767
    166 O25        -0.0570    0.0200    0.7900 o         1 MOL     -0.633040
    167 O26         0.5400   -1.8270   -0.0110 o         1 MOL     -0.633040
    168 H71        -4.3640   -0.6990    0.8880 hn        1 MOL      0.099103
    169 H72        -3.8990   -2.8510    2.8980 h1        1 MOL      0.116048
    170 H73        -1.6790   -1.7460    3.2200 hc        1 MOL      0.045489
    171 H74        -2.2210   -0.2550    2.4160 hc        1 MOL      0.045489
    172 H75        -2.3190   -1.7420    0.2020 hc        1 MOL      0.042439
    173 H76        -1.6040   -2.8990    1.1580 hc        1 MOL      0.042439
    174 N15        -4.9790    0.1290    3.9610 n         1 MOL     -0.173600
    175 C58        -5.3660    0.8950    5.1240 c3        1 MOL     -0.121547
    176 H77        -4.7520    1.7940    5.1870 h1        1 MOL      0.057145
    177 H78        -6.4150    1.1790    5.0400 h1        1 MOL      0.057145
    178 H79        -5.2220    0.2930    6.0210 h1        1 MOL      0.057145
    179 H80        -5.1220    0.5330    3.0490 hn        1 MOL      0.159491
    180 Ca1         2.5820   -0.2670    0.1170 Ca        1 MOL      1.735307
    181 O27         2.3350   -0.3920    2.9190 oh        1 MOL     -0.859560
    182 H81         1.9470   -1.0490    3.5030 ho        1 MOL      0.400624
    183 H82         2.7170    0.2640    3.5130 ho        1 MOL      0.400624
    184 O28         5.3550   -0.1830    1.1460 oh        1 MOL     -0.859560
    185 H83         5.4230    0.3700    1.9240 ho        1 MOL      0.400624
    186 H84         5.5360   -1.0650    1.4670 ho        1 MOL      0.400624
    187 O29         0.9940    0.8920   -1.8980 oh        1 MOL     -0.859560
    188 H85         1.5030    1.6370   -2.2260 ho        1 MOL      0.400624
    189 H86         1.1280    0.2050   -2.5440 ho        1 MOL      0.400624
@<TRIPOS>BOND
     1    1    2 1   
     2    1    4 1   
     3    1    5 1   
     4    1    6 1   
     5    2    3 2   
     6    2    7 1   
     7    7    8 1   
     8    7   15 1   
     9    8    9 1   
    10    8   11 1   
    11    8   16 1   
    12    9   10 2   
    13    9   19 1   
    14   11   12 1   
    15   11   17 1   
    16   11   18 1   
    17   12   13 1   
    18   12   14 1   
    19   19   20 1   
    20   19   27 1   
    21   20   21 1   
    22   20   23 1   
    23   20   28 1   
    24   21   22 2   
    25   21   38 1   
    26   23   24 1   
    27   23   25 1   
    28   23   29 1   
    29   24   26 1   
    30   24   30 1   
    31   24   31 1   
    32   25   32 1   
    33   25   33 1   
    34   25   34 1   
    35   26   35 1   
    36   26   36 1   
    37   26   37 1   
    38   38   39 1   
    39   38   46 1   
    40   39   40 1   
    41   39   42 1   
    42   39   47 1   
    43   40   41 2   
    44   40   50 1   
    45   42   43 1   
    46   42   48 1   
    47   42   49 1   
    48   43   44 1   
    49   43   45 1   
    50   50   51 1   
    51   50   54 1   
    52   51   52 1   
    53   51   55 1   
    54   51   56 1   
    55   52   53 2   
    56   52   57 1   
    57   57   58 1   
    58   57   65 1   
    59   58   59 1   
    60   58   61 1   
    61   58   66 1   
    62   59   60 2   
    63   59   69 1   
    64   61   62 1   
    65   61   67 1   
    66   61   68 1   
    67   62   63 1   
    68   62   64 1   
    69   69   70 1   
    70   69   73 1   
    71   70   71 1   
    72   70   74 1   
    73   70   75 1   
    74   71   72 2   
    75   71   76 1   
    76   76   77 1   
    77   76   85 1   
    78   77   78 1   
    79   77   80 1   
    80   77   86 1   
    81   78   79 2   
    82   78   93 1   
    83   80   81 1   
    84   80   87 1   
    85   80   88 1   
    86   81   82 1   
    87   81   89 1   
    88   81   90 1   
    89   82   83 1   
    90   82   84 2   
    91   83   91 1   
    92   83   92 1   
    93   93   94 1   
    94   93  100 1   
    95   94   95 1   
    96   94   97 1   
    97   94  101 1   
    98   95   96 2   
    99   95  109 1   
   100   97   98 1   
   101   97   99 1   
   102   97  102 1   
   103   98  103 1   
   104   98  104 1   
   105   98  105 1   
   106   99  106 1   
   107   99  107 1   
   108   99  108 1   
   109  109  110 1   
   110  109  117 1   
   111  110  111 1   
   112  110  113 1   
   113  110  118 1   
   114  111  112 2   
   115  111  123 1   
   116  113  114 1   
   117  113  119 1   
   118  113  120 1   
   119  114  115 1   
   120  114  116 2   
   121  115  121 1   
   122  115  122 1   
   123  123  124 1   
   124  123  135 1   
   125  124  125 1   
   126  124  127 1   
   127  124  136 1   
   128  125  126 2   
   129  125  144 1   
   130  127  128 1   
   131  127  137 1   
   132  127  138 1   
   133  128  129 ar  
   134  128  130 ar  
   135  129  131 ar  
   136  129  139 1   
   137  130  132 ar  
   138  130  140 1   
   139  131  133 ar  
   140  131  141 1   
   141  132  133 ar  
   142  132  142 1   
   143  133  134 1   
   144  134  143 1   
   145  144  145 1   
   146  144  153 1   
   147  145  146 1   
   148  145  148 1   
   149  145  154 1   
   150  146  147 2   
   151  146  159 1   
   152  148  149 1   
   153  148  155 1   
   154  148  156 1   
   155  149  150 1   
   156  149  157 1   
   157  149  158 1   
   158  150  151 1   
   159  150  152 1   
   160  159  160 1   
   161  159  168 1   
   162  160  161 1   
   163  160  163 1   
   164  160  169 1   
   165  161  162 2   
   166  161  174 1   
   167  163  164 1   
   168  163  170 1   
   169  163  171 1   
   170  164  165 1   
   171  164  172 1   
   172  164  173 1   
   173  165  166 1   
   174  165  167 1   
   175  174  175 1   
   176  174  179 1   
   177  175  176 1   
   178  175  177 1   
   179  175  178 1   
   180  181  182 1   
   181  181  183 1   
   182  184  185 1   
   183  184  186 1   
   184  187  188 1   
   185  187  189 1   
@<TRIPOS>SUBSTRUCTURE
     1 MOL         1 TEMP              0 ****  ****    0 ROOT
