@<TRIPOS>MOLECULE
MOL
  186   183     1     0     0
SMALL
resp


@<TRIPOS>ATOM
      1 C1          0.7010   -1.6550    6.3490 c3        1 MOL     -0.274834
      2 C2          1.1420   -1.6720    4.8980 c         1 MOL      0.808579
      3 O1          0.4070   -2.2410    4.0550 o         1 MOL     -0.646548
      4 H1          0.8900   -0.6690    6.7750 hc        1 MOL      0.063616
      5 H2         -0.3650   -1.8780    6.4080 hc        1 MOL      0.063616
      6 H3          1.2610   -2.4050    6.9070 hc        1 MOL      0.063616
      7 N1          2.3800   -1.1910    4.4940 n         1 MOL     -0.709037
      8 C3          2.8750   -1.3710    3.1800 c3        1 MOL      0.410371
      9 C4          3.2560   -2.8280    2.8980 c         1 MOL      0.356306
     10 O2          3.9600   -3.5300    3.6890 o         1 MOL     -0.565264
     11 C5          3.9710   -0.3230    2.8880 c3        1 MOL     -0.537379
     12 C6          4.6170   -0.5600    1.4700 c         1 MOL      0.878370
     13 O3          5.6900    0.0310    1.3280 o         1 MOL     -0.656791
     14 O4          4.0050   -1.0200    0.4920 o         1 MOL     -0.656791
     15 H4          2.9490   -0.5960    5.0710 hn        1 MOL      0.323194
     16 H5          1.9810   -1.1690    2.5910 h1        1 MOL      0.042083
     17 H6          4.7460   -0.5510    3.6150 hc        1 MOL      0.114922
     18 H7          3.5490    0.6830    2.8250 hc        1 MOL      0.114922
     19 N2          2.6330   -3.4130    1.8600 n         1 MOL     -0.004990
     20 C7          2.6290   -4.8070    1.4730 c3        1 MOL     -0.181366
     21 C8          3.7180   -5.1550    0.3940 c         1 MOL      0.620141
     22 O5          4.4290   -6.1240    0.5330 o         1 MOL     -0.607488
     23 C9          1.2170   -5.2510    0.9820 c3        1 MOL      0.251887
     24 C10         0.2230   -4.8520    2.0510 c3        1 MOL      0.129804
     25 C11         1.0570   -6.7130    0.7700 c3        1 MOL     -0.398356
     26 C12        -1.2470   -5.3250    1.8150 c3        1 MOL     -0.323029
     27 H8          2.0060   -2.8940    1.2630 hn        1 MOL     -0.099057
     28 H9          2.9320   -5.3580    2.3540 h1        1 MOL      0.085019
     29 H10         0.9400   -4.8120    0.0260 hc        1 MOL      0.028237
     30 H11         0.1860   -3.7690    2.1660 hc        1 MOL     -0.004372
     31 H12         0.6170   -5.2620    2.9860 hc        1 MOL     -0.004372
     32 H13         0.1210   -7.0560    0.3300 hc        1 MOL      0.078320
     33 H14         1.7640   -7.0690    0.0230 hc        1 MOL      0.078320
     34 H15         1.2050   -7.2140    1.7280 hc        1 MOL      0.078320
     35 H16        -1.4260   -6.3940    1.8520 hc        1 MOL      0.069850
     36 H17        -1.9390   -4.7840    2.4630 hc        1 MOL      0.069850
     37 H18        -1.5120   -5.1230    0.7820 hc        1 MOL      0.069850
     38 N3          4.0170   -4.2090   -0.4640 n         1 MOL     -0.409942
     39 C13         4.8630   -4.3410   -1.6850 c3        1 MOL     -0.002464
     40 C14         6.0580   -3.4290   -1.7280 c         1 MOL      0.494351
     41 O6          6.8500   -3.5780   -2.6170 o         1 MOL     -0.539116
     42 C15         3.9470   -4.2390   -2.9340 c3        1 MOL     -0.252410
     43 C16         3.2090   -2.8820   -3.0620 c         1 MOL      0.790754
     44 O7          3.3250   -2.0070   -2.2180 o         1 MOL     -0.706872
     45 O8          2.3660   -2.8210   -3.9850 o         1 MOL     -0.706872
     46 H19         3.4140   -3.4020   -0.4680 hn        1 MOL      0.277104
     47 H20         5.3310   -5.3230   -1.6620 h1        1 MOL      0.093023
     48 H21         3.1370   -4.9620   -3.0350 hc        1 MOL      0.067803
     49 H22         4.4650   -4.3770   -3.8810 hc        1 MOL      0.067803
     50 N4          6.2840   -2.4330   -0.7860 n         1 MOL     -0.136568
     51 C17         7.6930   -2.0460   -0.4730 c3        1 MOL     -0.041772
     52 C18         8.0460   -0.7300   -1.0880 c         1 MOL      0.614137
     53 O9          9.1360   -0.5590   -1.7130 o         1 MOL     -0.628476
     54 H23         5.5390   -2.1440   -0.1660 hn        1 MOL      0.075015
     55 H24         8.3800   -2.7850   -0.8960 h1        1 MOL      0.033031
     56 H25         7.9010   -2.0340    0.5970 h1        1 MOL      0.033031
     57 N5          7.2730    0.3210   -0.8420 n         1 MOL     -0.402940
     58 C19         7.4780    1.6330   -1.4130 c3        1 MOL      0.094882
     59 C20         7.5040    2.7820   -0.4020 c         1 MOL      0.444869
     60 O10         7.6680    3.9600   -0.7580 o         1 MOL     -0.571880
     61 C21         6.5090    1.7830   -2.5920 c3        1 MOL     -0.349006
     62 C22         5.0280    1.5860   -2.2420 c         1 MOL      0.854454
     63 O11         4.5600    1.8070   -1.0860 o         1 MOL     -0.780295
     64 O12         4.2920    1.0130   -3.0990 o         1 MOL     -0.780295
     65 H26         6.4630    0.1560   -0.2640 hn        1 MOL      0.155767
     66 H27         8.4760    1.8110   -1.8150 h1        1 MOL      0.081264
     67 H28         6.8640    1.0390   -3.3030 hc        1 MOL      0.097896
     68 H29         6.5110    2.7630   -3.0660 hc        1 MOL      0.097896
     69 N6          7.1170    2.5270    0.8570 n         1 MOL     -0.348900
     70 C23         6.7520    3.5660    1.8580 c3        1 MOL     -0.120060
     71 C24         5.2440    4.1480    1.8310 c         1 MOL      0.527633
     72 O13         5.0590    5.1110    2.5450 o         1 MOL     -0.608483
     73 H30         6.7340    1.6090    1.0290 hn        1 MOL      0.251133
     74 H31         7.2810    4.4850    1.6290 h1        1 MOL      0.090350
     75 H32         7.0530    3.1870    2.8280 h1        1 MOL      0.090350
     76 N7          4.3230    3.6530    1.0270 n         1 MOL     -0.338570
     77 C25         2.9260    4.1940    0.9560 c3        1 MOL      0.014103
     78 C26         1.8930    3.1060    1.1160 c         1 MOL      0.534063
     79 O14         2.1920    1.9510    0.7240 o         1 MOL     -0.786375
     80 C27         2.6670    4.9380   -0.3360 c3        1 MOL      0.178320
     81 C28         3.0460    6.4380   -0.2860 c3        1 MOL     -0.486837
     82 C29         2.8430    6.9620   -1.7230 c         1 MOL      0.750823
     83 N8          3.6990    6.9960   -2.6440 n         1 MOL     -0.800894
     84 O15         1.7710    7.3990   -1.9990 o         1 MOL     -0.616282
     85 H33         4.5490    2.9300    0.3660 hn        1 MOL      0.370171
     86 H34         2.7320    4.8540    1.8010 h1        1 MOL      0.049974
     87 H35         1.6170    4.8720   -0.6280 hc        1 MOL      0.003873
     88 H36         3.3560    4.5310   -1.0770 hc        1 MOL      0.003873
     89 H37         4.0960    6.5340   -0.0150 hc        1 MOL      0.137227
     90 H38         2.3960    7.0130    0.3700 hc        1 MOL      0.137227
     91 H39         4.5660    6.5120   -2.4600 hn        1 MOL      0.365794
     92 H40         3.3180    7.1100   -3.5770 hn        1 MOL      0.365794
     93 N9          0.7570    3.4410    1.6780 n         1 MOL     -0.213363
     94 C30        -0.4220    2.6100    1.7170 c3        1 MOL      0.234660
     95 C31        -1.2800    3.2880    0.6900 c         1 MOL      0.161825
     96 O16        -1.4250    4.4960    0.5610 o         1 MOL     -0.552045
     97 C32        -1.0010    2.6340    3.1850 c3        1 MOL      0.217192
     98 C33        -2.3070    1.9040    3.3230 c3        1 MOL     -0.211207
     99 C34         0.0310    2.1320    4.2100 c3        1 MOL     -0.211207
    100 H41         0.6510    4.3590    2.0780 hn        1 MOL      0.186419
    101 H42        -0.0890    1.5960    1.4960 h1        1 MOL      0.125907
    102 H43        -1.1670    3.6510    3.5580 hc        1 MOL     -0.035744
    103 H44        -3.0670    2.3730    2.6970 hc        1 MOL      0.030272
    104 H45        -2.2220    0.8430    3.0730 hc        1 MOL      0.030272
    105 H46        -2.7020    1.9570    4.3290 hc        1 MOL      0.030272
    106 H47        -0.4420    2.3240    5.1770 hc        1 MOL      0.030272
    107 H48         0.2580    1.0860    4.0250 hc        1 MOL      0.030272
    108 H49         0.9120    2.7590    4.0880 hc        1 MOL      0.030272
    109 N10        -1.9470    2.4560   -0.1370 n         1 MOL      0.255003
    110 C35        -3.0960    2.8910   -0.9130 c3        1 MOL      0.082058
    111 C36        -4.3730    2.2450   -0.3520 c         1 MOL      0.319470
    112 O17        -4.2820    1.3280    0.4670 o         1 MOL     -0.279142
    113 C37        -2.9120    2.6110   -2.4330 c3        1 MOL     -0.479109
    114 C38        -3.0920    1.1070   -2.7070 c         1 MOL      0.750998
    115 N11        -2.3050    0.2400   -2.2940 n         1 MOL     -0.785518
    116 O18        -4.0850    0.6650   -3.1550 o         1 MOL     -0.619359
    117 H50        -1.8090    1.4580    0.0000 hn        1 MOL     -0.234062
    118 H51        -3.1120    3.9800   -0.8680 h1        1 MOL      0.076554
    119 H52        -1.8750    2.9080   -2.6030 hc        1 MOL      0.138019
    120 H53        -3.6520    3.1680   -3.0000 hc        1 MOL      0.138019
    121 H54        -1.5180    0.4110   -1.6880 hn        1 MOL      0.403235
    122 H55        -2.4490   -0.7350   -2.4940 hn        1 MOL      0.403235
    123 N12        -5.5770    2.5940   -0.8620 n         1 MOL     -0.570170
    124 C39        -6.8090    1.9830   -0.3730 c3        1 MOL      0.211857
    125 C40        -6.8650    0.4000   -0.4800 c         1 MOL      0.560861
    126 O19        -7.4000   -0.1670    0.5210 o         1 MOL     -0.509113
    127 C41        -8.0790    2.4760   -1.1370 c3        1 MOL     -0.177754
    128 C42        -9.3890    2.1070   -0.4910 ca        1 MOL      0.080140
    129 C43        -9.8690    2.6420    0.7190 ca        1 MOL     -0.219886
    130 C44       -10.1790    1.1810   -1.1640 ca        1 MOL     -0.219886
    131 C45       -11.1070    2.1990    1.2680 ca        1 MOL     -0.221732
    132 C46       -11.3870    0.7110   -0.5920 ca        1 MOL     -0.221732
    133 C47       -11.8670    1.2470    0.5950 ca        1 MOL      0.354471
    134 O20       -13.0110    0.8180    1.0490 oh        1 MOL     -0.536598
    135 H56        -5.5750    3.3640   -1.5110 hn        1 MOL      0.324069
    136 H57        -6.9250    2.2000    0.6910 h1        1 MOL      0.065190
    137 H58        -8.0210    2.1290   -2.1660 hc        1 MOL      0.065751
    138 H59        -8.1240    3.5580   -1.1880 hc        1 MOL      0.065751
    139 H60        -9.2230    3.2230    1.3680 ha        1 MOL      0.144190
    140 H61        -9.9260    0.8490   -2.1660 ha        1 MOL      0.144190
    141 H62       -11.5190    2.6320    2.1690 ha        1 MOL      0.129851
    142 H63       -11.8870   -0.0940   -1.1050 ha        1 MOL      0.129851
    143 H64       -13.4570    0.1250    0.5480 ho        1 MOL      0.392295
    144 N13        -6.3340   -0.3160   -1.4700 n         1 MOL     -0.450559
    145 C48        -6.2740   -1.7760   -1.5680 c3        1 MOL      0.054860
    146 C49        -5.4670   -2.4470   -0.4180 c         1 MOL      0.279826
    147 O21        -5.8310   -3.5520   -0.0060 o         1 MOL     -0.508278
    148 C50        -5.6130   -2.0700   -2.8890 c3        1 MOL     -0.013903
    149 C51        -5.7110   -3.5440   -3.2680 c3        1 MOL     -0.319509
    150 C52        -4.9880   -3.6220   -4.5850 c         1 MOL      0.767134
    151 O22        -3.8390   -4.1340   -4.5440 o         1 MOL     -0.753073
    152 O23        -5.5280   -3.3150   -5.6600 o         1 MOL     -0.753073
    153 H65        -5.8840    0.2070   -2.2100 hn        1 MOL      0.263408
    154 H66        -7.2720   -2.1900   -1.5970 h1        1 MOL      0.089585
    155 H67        -4.5350   -1.9170   -2.8380 hc        1 MOL      0.051428
    156 H68        -5.9870   -1.4430   -3.6960 hc        1 MOL      0.051428
    157 H69        -6.7640   -3.8060   -3.3220 hc        1 MOL      0.057768
    158 H70        -5.2400   -4.1490   -2.4940 hc        1 MOL      0.057768
    159 N14        -4.5930   -1.6740    0.2100 n         1 MOL      0.032933
    160 C53        -3.7820   -2.0430    1.3910 c3        1 MOL     -0.166005
    161 C54        -4.4610   -1.5360    2.7290 c         1 MOL      0.412748
    162 O24        -4.0230   -1.8390    3.8460 o         1 MOL     -0.560969
    163 C55        -2.3290   -1.4170    1.2910 c3        1 MOL      0.041205
    164 C56        -1.5190   -1.8830    0.1520 c3        1 MOL      0.045231
    165 C57        -0.1950   -1.0900   -0.0660 c         1 MOL      0.461191
    166 O25         0.9070   -1.7070   -0.0920 o         1 MOL     -0.565971
    167 O26        -0.1810    0.1110   -0.4500 o         1 MOL     -0.565971
    168 H71        -4.3210   -0.8050   -0.2270 hn        1 MOL      0.084102
    169 H72        -3.6760   -3.1290    1.4420 h1        1 MOL      0.126318
    170 H73        -1.7160   -1.5210    2.1820 hc        1 MOL      0.078409
    171 H74        -2.4520   -0.3360    1.2070 hc        1 MOL      0.078409
    172 H75        -2.0310   -1.9900   -0.8030 hc        1 MOL      0.013756
    173 H76        -1.2030   -2.8450    0.5420 hc        1 MOL      0.013756
    174 N15        -5.4600   -0.6600    2.6420 n         1 MOL      0.004173
    175 C58        -6.2010   -0.0500    3.7560 c3        1 MOL     -0.243129
    176 H77        -5.7650    0.9200    3.9930 h1        1 MOL      0.090127
    177 H78        -7.2450    0.0810    3.4700 h1        1 MOL      0.090127
    178 H79        -6.1420   -0.6980    4.6310 h1        1 MOL      0.090127
    179 H80        -5.6740   -0.3470    1.7030 hn        1 MOL     -0.036843
    180 Ca1         2.4420    0.1910   -1.2040 Ca        1 MOL      1.746783
    181 O27         1.0470   -0.5040   -3.3290 oh        1 MOL     -0.852303
    182 H81         0.6720    0.0470   -4.0180 ho        1 MOL      0.389056
    183 H82         1.5490   -1.1720   -3.8060 ho        1 MOL      0.389056
    184 O28         1.1770    2.4130   -2.1320 oh        1 MOL     -0.852303
    185 H83         1.7310    2.9590   -2.6800 ho        1 MOL      0.389056
    186 H84         0.2790    2.6710   -2.3590 ho        1 MOL      0.389056
@<TRIPOS>BOND
     1    1    2 1   
     2    1    4 1   
     3    1    5 1   
     4    1    6 1   
     5    2    3 2   
     6    2    7 1   
     7    7    8 1   
     8    7   15 1   
     9    8    9 1   
    10    8   11 1   
    11    8   16 1   
    12    9   10 2   
    13    9   19 1   
    14   11   12 1   
    15   11   17 1   
    16   11   18 1   
    17   12   13 1   
    18   12   14 1   
    19   19   20 1   
    20   19   27 1   
    21   20   21 1   
    22   20   23 1   
    23   20   28 1   
    24   21   22 2   
    25   21   38 1   
    26   23   24 1   
    27   23   25 1   
    28   23   29 1   
    29   24   26 1   
    30   24   30 1   
    31   24   31 1   
    32   25   32 1   
    33   25   33 1   
    34   25   34 1   
    35   26   35 1   
    36   26   36 1   
    37   26   37 1   
    38   38   39 1   
    39   38   46 1   
    40   39   40 1   
    41   39   42 1   
    42   39   47 1   
    43   40   41 2   
    44   40   50 1   
    45   42   43 1   
    46   42   48 1   
    47   42   49 1   
    48   43   44 1   
    49   43   45 1   
    50   50   51 1   
    51   50   54 1   
    52   51   52 1   
    53   51   55 1   
    54   51   56 1   
    55   52   53 2   
    56   52   57 1   
    57   57   58 1   
    58   57   65 1   
    59   58   59 1   
    60   58   61 1   
    61   58   66 1   
    62   59   60 2   
    63   59   69 1   
    64   61   62 1   
    65   61   67 1   
    66   61   68 1   
    67   62   63 1   
    68   62   64 1   
    69   69   70 1   
    70   69   73 1   
    71   70   71 1   
    72   70   74 1   
    73   70   75 1   
    74   71   72 2   
    75   71   76 1   
    76   76   77 1   
    77   76   85 1   
    78   77   78 1   
    79   77   80 1   
    80   77   86 1   
    81   78   79 2   
    82   78   93 1   
    83   80   81 1   
    84   80   87 1   
    85   80   88 1   
    86   81   82 1   
    87   81   89 1   
    88   81   90 1   
    89   82   83 1   
    90   82   84 2   
    91   83   91 1   
    92   83   92 1   
    93   93   94 1   
    94   93  100 1   
    95   94   95 1   
    96   94   97 1   
    97   94  101 1   
    98   95   96 2   
    99   95  109 1   
   100   97   98 1   
   101   97   99 1   
   102   97  102 1   
   103   98  103 1   
   104   98  104 1   
   105   98  105 1   
   106   99  106 1   
   107   99  107 1   
   108   99  108 1   
   109  109  110 1   
   110  109  117 1   
   111  110  111 1   
   112  110  113 1   
   113  110  118 1   
   114  111  112 2   
   115  111  123 1   
   116  113  114 1   
   117  113  119 1   
   118  113  120 1   
   119  114  115 1   
   120  114  116 2   
   121  115  121 1   
   122  115  122 1   
   123  123  124 1   
   124  123  135 1   
   125  124  125 1   
   126  124  127 1   
   127  124  136 1   
   128  125  126 2   
   129  125  144 1   
   130  127  128 1   
   131  127  137 1   
   132  127  138 1   
   133  128  129 ar  
   134  128  130 ar  
   135  129  131 ar  
   136  129  139 1   
   137  130  132 ar  
   138  130  140 1   
   139  131  133 ar  
   140  131  141 1   
   141  132  133 ar  
   142  132  142 1   
   143  133  134 1   
   144  134  143 1   
   145  144  145 1   
   146  144  153 1   
   147  145  146 1   
   148  145  148 1   
   149  145  154 1   
   150  146  147 2   
   151  146  159 1   
   152  148  149 1   
   153  148  155 1   
   154  148  156 1   
   155  149  150 1   
   156  149  157 1   
   157  149  158 1   
   158  150  151 1   
   159  150  152 1   
   160  159  160 1   
   161  159  168 1   
   162  160  161 1   
   163  160  163 1   
   164  160  169 1   
   165  161  162 2   
   166  161  174 1   
   167  163  164 1   
   168  163  170 1   
   169  163  171 1   
   170  164  165 1   
   171  164  172 1   
   172  164  173 1   
   173  165  166 1   
   174  165  167 1   
   175  174  175 1   
   176  174  179 1   
   177  175  176 1   
   178  175  177 1   
   179  175  178 1   
   180  181  182 1   
   181  181  183 1   
   182  184  185 1   
   183  184  186 1   
@<TRIPOS>SUBSTRUCTURE
     1 MOL         1 TEMP              0 ****  ****    0 ROOT
