@<TRIPOS>MOLECULE
MOL
  176   174     1     0     0
SMALL
resp


@<TRIPOS>ATOM
      1 C1          1.8020   -4.0100    6.6270 c3        1 MOL     -0.327778
      2 C2          1.3400   -3.6690    5.1510 c         1 MOL      0.737526
      3 O1          0.1990   -3.9350    4.7960 o         1 MOL     -0.601199
      4 H1          2.6290   -4.7210    6.5940 hc        1 MOL      0.083300
      5 H2          2.1290   -3.0970    7.1260 hc        1 MOL      0.083300
      6 H3          0.9690   -4.4470    7.1780 hc        1 MOL      0.083300
      7 N1          2.1650   -3.1350    4.3330 n         1 MOL     -0.596466
      8 C3          1.9090   -2.8030    2.9240 c3        1 MOL     -0.009772
      9 C4          1.8270   -4.0190    1.9980 c         1 MOL      0.647088
     10 O2          2.5860   -4.9750    2.1790 o         1 MOL     -0.532421
     11 C5          3.1440   -1.9430    2.5070 c3        1 MOL      0.059920
     12 C6          2.8830   -1.2350    1.1840 c         1 MOL      0.394821
     13 O3          2.5840   -1.9990    0.2130 o         1 MOL     -0.559098
     14 O4          3.0170    0.0050    1.0050 o         1 MOL     -0.559098
     15 H4          2.9790   -2.6850    4.7350 hn        1 MOL      0.299389
     16 H5          0.9980   -2.2100    2.7970 h1        1 MOL      0.119398
     17 H6          4.0410   -2.5580    2.4200 hc        1 MOL      0.013657
     18 H7          3.4170   -1.1810    3.2440 hc        1 MOL      0.013657
     19 N2          0.8480   -3.9490    1.0780 n         1 MOL     -0.262404
     20 C7          0.3770   -5.1310    0.3480 c3        1 MOL     -0.205025
     21 C8          1.4520   -5.5760   -0.6970 c         1 MOL      0.530568
     22 O5          1.6130   -6.7950   -0.9250 o         1 MOL     -0.572384
     23 C9         -0.9400   -4.7960   -0.2860 c3        1 MOL      0.047340
     24 C10        -1.5570   -5.9870   -1.0890 c3        1 MOL     -0.096101
     25 C11        -2.9710   -5.6840   -1.6320 c3        1 MOL      0.077599
     26 C12        -3.5920   -6.8950   -2.2230 c3        1 MOL      0.090290
     27 N3         -4.6660   -6.4430   -3.1950 n4        1 MOL     -0.366880
     28 H8          0.3380   -3.0830    1.1950 hn        1 MOL      0.154347
     29 H9          0.2400   -5.9950    0.9990 h1        1 MOL      0.137764
     30 H10        -0.8670   -4.0010   -1.0290 hc        1 MOL      0.051400
     31 H11        -1.6150   -4.4380    0.4890 hc        1 MOL      0.051400
     32 H12        -1.6830   -6.9030   -0.5110 hc        1 MOL      0.031457
     33 H13        -0.9530   -6.3440   -1.9260 hc        1 MOL      0.031457
     34 H14        -2.8270   -4.9290   -2.4140 hc        1 MOL     -0.003151
     35 H15        -3.5740   -5.3100   -0.8100 hc        1 MOL     -0.003151
     36 H16        -4.0410   -7.5710   -1.5000 hx        1 MOL      0.078308
     37 H17        -2.9330   -7.5010   -2.8490 hx        1 MOL      0.078308
     38 H18        -5.0590   -7.2450   -3.6840 hn        1 MOL      0.318129
     39 H19        -5.3560   -5.8680   -2.7350 hn        1 MOL      0.318129
     40 H20        -4.3740   -5.7560   -3.8730 hn        1 MOL      0.318129
     41 N4          2.2660   -4.6190   -1.1300 n         1 MOL     -0.261271
     42 C13         3.3150   -4.8020   -2.0800 c3        1 MOL      0.113011
     43 C14         4.6160   -4.2930   -1.6090 c         1 MOL      0.338250
     44 O6          5.5710   -4.2510   -2.3530 o         1 MOL     -0.512291
     45 C15         2.9220   -4.0440   -3.3790 c3        1 MOL     -0.300885
     46 C16         2.4270   -2.6530   -3.0670 c         1 MOL      0.880231
     47 O7          1.2280   -2.3640   -3.1240 o         1 MOL     -0.764298
     48 O8          3.1670   -1.7210   -2.8770 o         1 MOL     -0.764298
     49 H21         2.0560   -3.6940   -0.7810 hn        1 MOL      0.071510
     50 H22         3.3820   -5.8580   -2.3180 h1        1 MOL      0.103856
     51 H23         2.1320   -4.5840   -3.9010 hc        1 MOL      0.069337
     52 H24         3.7640   -3.9230   -4.0680 hc        1 MOL      0.069337
     53 N5          4.7560   -3.8650   -0.3220 n         1 MOL     -0.070382
     54 C17         6.0490   -3.4470    0.2480 c3        1 MOL     -0.320014
     55 C18         6.4780   -1.9600    0.1220 c         1 MOL      0.519191
     56 O9          7.4980   -1.5640    0.7440 o         1 MOL     -0.572991
     57 H25         3.9770   -3.9970    0.3010 hn        1 MOL      0.128829
     58 H26         6.8840   -4.0040   -0.1750 h1        1 MOL      0.140646
     59 H27         5.8570   -3.5240    1.3230 h1        1 MOL      0.140646
     60 N6          5.8100   -1.1390   -0.6670 n         1 MOL     -0.099912
     61 C19         6.4940    0.0880   -1.1040 c3        1 MOL     -0.105751
     62 C20         6.4740    1.2860   -0.0880 c         1 MOL      0.397406
     63 O10         7.1810    2.2340   -0.3560 o         1 MOL     -0.465215
     64 C21         5.9800    0.5100   -2.4960 c3        1 MOL     -0.262313
     65 C22         4.8150    1.4550   -2.4390 c         1 MOL      0.553841
     66 N7          4.9230    2.5980   -3.0250 n         1 MOL     -0.596641
     67 O11         3.7960    1.2310   -1.7780 o         1 MOL     -0.591861
     68 H28         5.1020   -1.4550   -1.3240 hn        1 MOL      0.206254
     69 H29         7.5110   -0.2150   -1.3520 h1        1 MOL      0.129043
     70 H30         5.7530   -0.2970   -3.2000 hc        1 MOL      0.111413
     71 H31         6.7540    1.1540   -2.9270 hc        1 MOL      0.111413
     72 H32         5.7640    2.8490   -3.5350 hn        1 MOL      0.320769
     73 H33         4.0880    3.1410   -3.1410 hn        1 MOL      0.320769
     74 N8          5.5800    1.1950    0.9550 n         1 MOL     -0.046818
     75 C23         5.4360    2.1910    2.0140 c3        1 MOL     -0.368085
     76 C24         4.4060    3.3210    1.7430 c         1 MOL      0.562178
     77 O12         4.5950    4.4130    2.3540 o         1 MOL     -0.539234
     78 H34         4.8600    0.5050    0.8420 hn        1 MOL      0.071657
     79 H35         6.4260    2.6210    2.1330 h1        1 MOL      0.149757
     80 H36         5.0990    1.7500    2.9520 h1        1 MOL      0.149757
     81 N9          3.3380    3.0590    0.9900 n         1 MOL     -0.180456
     82 C25         2.1410    3.8570    0.7970 c3        1 MOL      0.006346
     83 C26         0.9230    2.8910    0.5710 c         1 MOL      0.581011
     84 O13         0.9870    1.8600   -0.1180 o         1 MOL     -0.578062
     85 C27         2.2500    4.7240   -0.4380 c3        1 MOL      0.196537
     86 C28         3.2780    5.9100   -0.4770 ca        1 MOL     -0.114850
     87 C29         4.4850    5.6820   -1.1230 ca        1 MOL     -0.098573
     88 C30         3.0110    7.1850    0.1020 ca        1 MOL     -0.098573
     89 C31         5.3970    6.7150   -1.2760 ca        1 MOL     -0.237768
     90 C32         4.0230    8.1600   -0.0010 ca        1 MOL     -0.237768
     91 C33         5.2460    7.9830   -0.6810 ca        1 MOL      0.293920
     92 O14         6.2580    8.9420   -0.6310 oh        1 MOL     -0.440678
     93 H37         3.2100    2.0760    0.7760 hn        1 MOL      0.111761
     94 H38         1.9970    4.6000    1.5850 h1        1 MOL      0.022151
     95 H39         1.2540    5.1080   -0.6780 hc        1 MOL     -0.040439
     96 H40         2.4250    4.0630   -1.2870 hc        1 MOL     -0.040439
     97 H41         4.8260    4.7700   -1.5840 ha        1 MOL      0.115792
     98 H42         2.0640    7.4550    0.5380 ha        1 MOL      0.115792
     99 H43         6.3050    6.5350   -1.8280 ha        1 MOL      0.134521
    100 H44         3.8210    9.0860    0.5140 ha        1 MOL      0.134521
    101 H45         5.8370    9.6280   -0.1150 ho        1 MOL      0.330270
    102 N10        -0.2260    3.2480    1.1560 n         1 MOL     -0.516521
    103 C34        -1.4760    2.4560    1.2180 c3        1 MOL     -0.002706
    104 C35        -2.5350    3.4280    0.9140 c         1 MOL      0.595680
    105 O15        -2.7740    4.3200    1.6640 o         1 MOL     -0.552164
    106 C36        -1.7170    1.8140    2.6830 c3        1 MOL      0.016577
    107 C37        -0.5220    0.9330    3.0100 c3        1 MOL      0.291914
    108 C38        -2.9790    1.0390    2.7700 c3        1 MOL     -0.033789
    109 C39        -0.6240    0.2550    4.3690 c3        1 MOL     -0.385283
    110 H46        -0.2150    4.0210    1.8180 hn        1 MOL      0.312867
    111 H47        -1.4750    1.6770    0.4650 h1        1 MOL      0.038188
    112 H48        -1.7230    2.6550    3.3770 hc        1 MOL      0.026209
    113 H49         0.3130    1.6390    2.9930 hc        1 MOL     -0.060114
    114 H50        -0.2360    0.1750    2.2890 hc        1 MOL     -0.060114
    115 H51        -3.8020    1.5640    2.2880 hc        1 MOL      0.004323
    116 H52        -3.0080   -0.0180    2.4970 hc        1 MOL      0.004323
    117 H53        -3.3290    1.0080    3.8020 hc        1 MOL      0.004323
    118 H54         0.4080   -0.0180    4.6050 hc        1 MOL      0.085694
    119 H55        -0.9870    0.9700    5.1100 hc        1 MOL      0.085694
    120 H56        -1.2200   -0.6590    4.3410 hc        1 MOL      0.085694
    121 N11        -3.2670    3.1950   -0.1540 n         1 MOL     -0.415018
    122 C40        -4.4910    3.9490   -0.5150 c3        1 MOL      0.060759
    123 C41        -5.8240    3.4030    0.0930 c         1 MOL      0.348638
    124 O16        -5.8080    2.2420    0.5830 o         1 MOL     -0.317303
    125 C42        -4.4910    3.9720   -2.0370 c3        1 MOL      0.077206
    126 O17        -4.4260    2.6740   -2.6260 oh        1 MOL     -0.534775
    127 H57        -3.0470    2.3650   -0.6750 hn        1 MOL      0.256636
    128 H58        -4.3180    4.9960   -0.2480 h1        1 MOL      0.075042
    129 H59        -3.7530    4.7080   -2.3520 h1        1 MOL      0.044617
    130 H60        -5.4650    4.4230   -2.2690 h1        1 MOL      0.044617
    131 H61        -3.5230    2.3540   -2.6190 ho        1 MOL      0.382754
    132 N12        -6.9910    4.0690   -0.0830 n         1 MOL     -0.390506
    133 C43        -8.2860    3.5390    0.3480 c3        1 MOL      0.083364
    134 C44        -8.6610    2.1090   -0.1810 c         1 MOL      0.489243
    135 O18        -9.5080    1.4900    0.4270 o         1 MOL     -0.523294
    136 C45        -9.3860    4.5510   -0.1080 c3        1 MOL     -0.284743
    137 H62        -6.9680    4.9920   -0.4970 hn        1 MOL      0.278612
    138 H63        -8.2140    3.4020    1.4330 h1        1 MOL      0.084902
    139 H64       -10.3590    4.2400    0.2680 hc        1 MOL      0.096773
    140 H65        -9.1700    5.4940    0.3990 hc        1 MOL      0.096773
    141 H66        -9.4000    4.7080   -1.1930 hc        1 MOL      0.096773
    142 N13        -8.2410    1.6700   -1.3430 n         1 MOL     -0.422232
    143 C46        -8.4810    0.2540   -1.7080 c3        1 MOL      0.152710
    144 C47        -7.6290   -0.7320   -0.8580 c         1 MOL      0.383564
    145 O19        -8.0140   -1.7240   -0.2450 o         1 MOL     -0.517066
    146 C48        -8.4320    0.0610   -3.2150 c3        1 MOL     -0.264007
    147 H67        -7.6600    2.2560   -1.9290 hn        1 MOL      0.298935
    148 H68        -9.5350    0.0960   -1.4840 h1        1 MOL      0.095569
    149 H69        -9.3570    0.2770   -3.7600 hc        1 MOL      0.072352
    150 H70        -7.6070    0.6240   -3.6490 hc        1 MOL      0.072352
    151 H71        -8.2400   -0.9940   -3.3890 hc        1 MOL      0.072352
    152 N14        -6.3340   -0.4380   -0.8460 n         1 MOL     -0.250100
    153 C49        -5.2220   -1.3560   -0.2580 c3        1 MOL     -0.006967
    154 C50        -5.5040   -1.5080    1.3070 c         1 MOL      0.472006
    155 O20        -5.2850   -2.6370    1.7840 o         1 MOL     -0.557786
    156 C51        -3.8910   -0.6960   -0.5330 c3        1 MOL     -0.194219
    157 C52        -2.6940   -1.5110   -0.0620 c3        1 MOL     -0.013741
    158 C53        -1.3580   -1.0550   -0.6540 c         1 MOL      0.622450
    159 O21        -0.3160   -1.3120   -0.0060 o         1 MOL     -0.697220
    160 O22        -1.2550   -0.4380   -1.7500 o         1 MOL     -0.697220
    161 H72        -6.0430    0.4220   -1.2880 hn        1 MOL      0.160491
    162 H73        -5.2210   -2.3130   -0.7880 h1        1 MOL      0.055539
    163 H74        -3.9370    0.3120   -0.1100 hc        1 MOL      0.045384
    164 H75        -3.7940   -0.4950   -1.5950 hc        1 MOL      0.045384
    165 H76        -2.9150   -2.5650   -0.2300 hc        1 MOL      0.051703
    166 H77        -2.6360   -1.4580    1.0220 hc        1 MOL      0.051703
    167 N15        -5.9370   -0.4480    2.0060 n         1 MOL      0.034099
    168 C54        -6.3610   -0.5710    3.3940 c3        1 MOL     -0.243702
    169 H78        -5.5370   -0.9610    3.9920 h1        1 MOL      0.096415
    170 H79        -6.6530    0.4090    3.7730 h1        1 MOL      0.096415
    171 H80        -7.2090   -1.2530    3.4560 h1        1 MOL      0.096415
    172 H81        -6.0280    0.4340    1.5110 hn        1 MOL      0.050636
    173 Ca1         1.5730   -0.3040   -1.3870 Ca        1 MOL      1.722404
    174 O23         1.1950    0.7680   -3.7380 oh        1 MOL     -0.867094
    175 H82         1.0590    0.2290   -4.5220 ho        1 MOL      0.421851
    176 H83         1.2160    1.6640   -4.0710 ho        1 MOL      0.421851
@<TRIPOS>BOND
     1    1    2 1   
     2    1    4 1   
     3    1    5 1   
     4    1    6 1   
     5    2    3 2   
     6    2    7 1   
     7    7    8 1   
     8    7   15 1   
     9    8    9 1   
    10    8   11 1   
    11    8   16 1   
    12    9   10 2   
    13    9   19 1   
    14   11   12 1   
    15   11   17 1   
    16   11   18 1   
    17   12   13 1   
    18   12   14 1   
    19   19   20 1   
    20   19   28 1   
    21   20   21 1   
    22   20   23 1   
    23   20   29 1   
    24   21   22 2   
    25   21   41 1   
    26   23   24 1   
    27   23   30 1   
    28   23   31 1   
    29   24   25 1   
    30   24   32 1   
    31   24   33 1   
    32   25   26 1   
    33   25   34 1   
    34   25   35 1   
    35   26   27 1   
    36   26   36 1   
    37   26   37 1   
    38   27   38 1   
    39   27   39 1   
    40   27   40 1   
    41   41   42 1   
    42   41   49 1   
    43   42   43 1   
    44   42   45 1   
    45   42   50 1   
    46   43   44 2   
    47   43   53 1   
    48   45   46 1   
    49   45   51 1   
    50   45   52 1   
    51   46   47 1   
    52   46   48 1   
    53   53   54 1   
    54   53   57 1   
    55   54   55 1   
    56   54   58 1   
    57   54   59 1   
    58   55   56 2   
    59   55   60 1   
    60   60   61 1   
    61   60   68 1   
    62   61   62 1   
    63   61   64 1   
    64   61   69 1   
    65   62   63 2   
    66   62   74 1   
    67   64   65 1   
    68   64   70 1   
    69   64   71 1   
    70   65   66 1   
    71   65   67 2   
    72   66   72 1   
    73   66   73 1   
    74   74   75 1   
    75   74   78 1   
    76   75   76 1   
    77   75   79 1   
    78   75   80 1   
    79   76   77 2   
    80   76   81 1   
    81   81   82 1   
    82   81   93 1   
    83   82   83 1   
    84   82   85 1   
    85   82   94 1   
    86   83   84 2   
    87   83  102 1   
    88   85   86 1   
    89   85   95 1   
    90   85   96 1   
    91   86   87 ar  
    92   86   88 ar  
    93   87   89 ar  
    94   87   97 1   
    95   88   90 ar  
    96   88   98 1   
    97   89   91 ar  
    98   89   99 1   
    99   90   91 ar  
   100   90  100 1   
   101   91   92 1   
   102   92  101 1   
   103  102  103 1   
   104  102  110 1   
   105  103  104 1   
   106  103  106 1   
   107  103  111 1   
   108  104  105 2   
   109  104  121 1   
   110  106  107 1   
   111  106  108 1   
   112  106  112 1   
   113  107  109 1   
   114  107  113 1   
   115  107  114 1   
   116  108  115 1   
   117  108  116 1   
   118  108  117 1   
   119  109  118 1   
   120  109  119 1   
   121  109  120 1   
   122  121  122 1   
   123  121  127 1   
   124  122  123 1   
   125  122  125 1   
   126  122  128 1   
   127  123  124 2   
   128  123  132 1   
   129  125  126 1   
   130  125  129 1   
   131  125  130 1   
   132  126  131 1   
   133  132  133 1   
   134  132  137 1   
   135  133  134 1   
   136  133  136 1   
   137  133  138 1   
   138  134  135 2   
   139  134  142 1   
   140  136  139 1   
   141  136  140 1   
   142  136  141 1   
   143  142  143 1   
   144  142  147 1   
   145  143  144 1   
   146  143  146 1   
   147  143  148 1   
   148  144  145 2   
   149  144  152 1   
   150  146  149 1   
   151  146  150 1   
   152  146  151 1   
   153  152  153 1   
   154  152  161 1   
   155  153  154 1   
   156  153  156 1   
   157  153  162 1   
   158  154  155 2   
   159  154  167 1   
   160  156  157 1   
   161  156  163 1   
   162  156  164 1   
   163  157  158 1   
   164  157  165 1   
   165  157  166 1   
   166  158  159 1   
   167  158  160 1   
   168  167  168 1   
   169  167  172 1   
   170  168  169 1   
   171  168  170 1   
   172  168  171 1   
   173  174  175 1   
   174  174  176 1   
@<TRIPOS>SUBSTRUCTURE
     1 MOL         1 TEMP              0 ****  ****    0 ROOT
