@<TRIPOS>MOLECULE
MOL
  189   185     1     0     0
SMALL
resp


@<TRIPOS>ATOM
      1 C1          0.2630    2.4400    6.3380 c3        1 MOL     -0.557189
      2 C2         -0.4510    2.2550    4.9310 c         1 MOL      0.755871
      3 O1         -0.5860    1.0900    4.5750 o         1 MOL     -0.559405
      4 H1          0.3950    3.5030    6.5410 hc        1 MOL      0.142925
      5 H2         -0.3530    1.9960    7.1200 hc        1 MOL      0.142925
      6 H3          1.2370    1.9510    6.3200 hc        1 MOL      0.142925
      7 N1         -0.9950    3.2990    4.2850 n         1 MOL     -0.661287
      8 C3         -1.8370    3.0690    3.1180 c3        1 MOL      0.352377
      9 C4         -2.1910    4.3770    2.3080 c         1 MOL      0.463563
     10 O2         -2.7160    5.3010    2.8990 o         1 MOL     -0.581533
     11 C5         -3.1350    2.4580    3.5580 c3        1 MOL     -0.257193
     12 C6         -3.9660    1.7960    2.4550 c         1 MOL      0.829476
     13 O3         -5.0550    1.1860    2.7150 o         1 MOL     -0.741413
     14 O4         -3.6020    1.8240    1.2630 o         1 MOL     -0.741413
     15 H4         -0.8800    4.2440    4.6330 hn        1 MOL      0.323947
     16 H5         -1.2900    2.3480    2.5120 h1        1 MOL     -0.025256
     17 H6         -3.7370    3.2440    4.0080 hc        1 MOL      0.043106
     18 H7         -2.9870    1.6580    4.2800 hc        1 MOL      0.043106
     19 N2         -1.9550    4.3350    1.0060 n         1 MOL     -0.083705
     20 C7         -2.0900    5.5000    0.0760 c3        1 MOL     -0.181008
     21 C8         -2.9740    5.3070   -1.1690 c         1 MOL      0.524155
     22 O5         -3.2770    6.3050   -1.8370 o         1 MOL     -0.550836
     23 C9         -0.6290    6.0070   -0.3470 c3        1 MOL      0.340627
     24 C10         0.0680    5.0010   -1.2910 c3        1 MOL     -0.079202
     25 C11         0.1990    6.4700    0.9330 c3        1 MOL     -0.115197
     26 C12         1.1760    5.7050   -2.0140 c3        1 MOL     -0.296650
     27 H8         -1.5950    3.4390    0.7010 hn        1 MOL     -0.064695
     28 H9         -2.4700    6.3640    0.6120 h1        1 MOL      0.086987
     29 H10        -0.9360    6.8450   -0.9780 hc        1 MOL     -0.087939
     30 H11        -0.6610    4.5680   -1.9780 hc        1 MOL      0.067423
     31 H12         0.5780    4.2330   -0.7040 hc        1 MOL      0.067423
     32 H13         0.6170    5.6130    1.4640 hc        1 MOL      0.007625
     33 H14         0.9170    7.2380    0.6640 hc        1 MOL      0.007625
     34 H15        -0.4750    6.9860    1.6080 hc        1 MOL      0.007625
     35 H16         0.8000    6.3900   -2.7760 hc        1 MOL      0.075599
     36 H17         1.9500    6.0460   -1.3310 hc        1 MOL      0.075599
     37 H18         1.6690    5.0290   -2.7150 hc        1 MOL      0.075599
     38 N3         -3.4820    4.0650   -1.4180 n         1 MOL     -0.316488
     39 C13        -4.4040    3.7330   -2.4940 c3        1 MOL     -0.062719
     40 C14        -5.7530    3.1900   -2.0230 c         1 MOL      0.506162
     41 O6         -6.6950    3.1620   -2.7800 o         1 MOL     -0.564928
     42 C15        -3.7780    2.7040   -3.5170 c3        1 MOL     -0.029645
     43 C16        -3.0650    1.5030   -2.9210 c         1 MOL      0.640337
     44 O7         -3.4320    1.1630   -1.7530 o         1 MOL     -0.655437
     45 O8         -2.1410    0.8950   -3.5250 o         1 MOL     -0.655437
     46 H19        -3.3180    3.3780   -0.6940 hn        1 MOL      0.233113
     47 H20        -4.5700    4.6500   -3.0480 h1        1 MOL      0.093403
     48 H21        -3.0560    3.2140   -4.1600 hc        1 MOL      0.020346
     49 H22        -4.4490    2.3190   -4.2740 hc        1 MOL      0.020346
     50 N4         -5.8890    2.7640   -0.7470 n         1 MOL     -0.257982
     51 C17        -7.1350    2.2820   -0.1590 c3        1 MOL     -0.254398
     52 C18        -7.5690    0.8730   -0.6220 c         1 MOL      0.597294
     53 O9         -8.7060    0.5480   -0.2660 o         1 MOL     -0.614994
     54 H23        -5.0370    2.7040   -0.2000 hn        1 MOL      0.180720
     55 H24        -7.9080    3.0200   -0.3400 h1        1 MOL      0.130512
     56 H25        -6.9610    2.1860    0.9120 h1        1 MOL      0.130512
     57 N5         -6.7060    0.0920   -1.2850 n         1 MOL     -0.273419
     58 C19        -6.9650   -1.2620   -1.8740 c3        1 MOL     -0.005492
     59 C20        -7.1580   -2.4350   -0.9250 c         1 MOL      0.416258
     60 O10        -7.6940   -3.5090   -1.2290 o         1 MOL     -0.547466
     61 C21        -5.9520   -1.6570   -2.9020 c3        1 MOL     -0.220539
     62 C22        -4.4660   -1.7950   -2.4210 c         1 MOL      0.779533
     63 O11        -4.2630   -1.5770   -1.1720 o         1 MOL     -0.706448
     64 O12        -3.5990   -2.2600   -3.1900 o         1 MOL     -0.706448
     65 H26        -5.7670    0.4160   -1.4510 hn        1 MOL      0.170962
     66 H27        -7.9340   -1.1770   -2.3440 h1        1 MOL      0.086623
     67 H28        -5.9980   -0.8410   -3.6260 hc        1 MOL      0.056021
     68 H29        -6.2810   -2.5130   -3.4860 hc        1 MOL      0.056021
     69 N6         -6.8110   -2.2750    0.3390 n         1 MOL     -0.202970
     70 C23        -6.8940   -3.3610    1.3470 c3        1 MOL     -0.277872
     71 C24        -5.7200   -4.3340    1.5280 c         1 MOL      0.513316
     72 O13        -5.9150   -5.4560    2.0470 o         1 MOL     -0.584578
     73 H30        -6.3660   -1.4530    0.7170 hn        1 MOL      0.263114
     74 H31        -7.8400   -3.8680    1.1510 h1        1 MOL      0.122691
     75 H32        -7.0130   -2.8610    2.3060 h1        1 MOL      0.122691
     76 N7         -4.5410   -3.9700    1.0180 n         1 MOL     -0.215357
     77 C25        -3.2510   -4.6740    1.0600 c3        1 MOL     -0.015881
     78 C26        -2.0670   -3.7130    0.9920 c         1 MOL      0.427229
     79 O14        -2.1700   -2.6240    0.4430 o         1 MOL     -0.474813
     80 C27        -3.2730   -5.7290   -0.0430 c3        1 MOL     -0.226744
     81 C28        -3.5010   -5.1530   -1.4450 c3        1 MOL      0.064505
     82 C29        -3.4590   -6.2140   -2.4820 c         1 MOL      0.570104
     83 N8         -3.4640   -5.6770   -3.6970 n         1 MOL     -0.794747
     84 O15        -3.1450   -7.3760   -2.2350 o         1 MOL     -0.575866
     85 H33        -4.5350   -3.1690    0.3920 hn        1 MOL      0.246977
     86 H34        -3.1440   -5.1330    2.0410 h1        1 MOL      0.031735
     87 H35        -4.0790   -6.4550    0.0840 hc        1 MOL      0.079608
     88 H36        -2.3400   -6.2890   -0.1050 hc        1 MOL      0.079608
     89 H37        -2.7240   -4.4350   -1.7130 hc        1 MOL      0.060953
     90 H38        -4.4230   -4.5970   -1.6150 hc        1 MOL      0.060953
     91 H39        -3.6480   -4.6960   -3.8410 hn        1 MOL      0.351580
     92 H40        -3.1800   -6.1790   -4.5210 hn        1 MOL      0.351580
     93 N9         -0.9390   -4.0820    1.5750 n         1 MOL     -0.389816
     94 C30         0.2860   -3.2730    1.7580 c3        1 MOL     -0.087731
     95 C31         1.2080   -3.4340    0.5090 c         1 MOL      0.523556
     96 O16         1.6150   -4.5310    0.0880 o         1 MOL     -0.604550
     97 C32         1.0350   -3.6010    3.0150 c3        1 MOL      0.147577
     98 C33         2.0130   -2.4950    3.3640 c3        1 MOL     -0.214851
     99 C34         0.0130   -3.6930    4.1570 c3        1 MOL     -0.214851
    100 H41        -0.8510   -5.0450    1.8770 hn        1 MOL      0.292309
    101 H42        -0.0330   -2.2370    1.9100 h1        1 MOL      0.216167
    102 H43         1.5860   -4.5290    2.9090 hc        1 MOL     -0.001008
    103 H44         2.6770   -2.4240    2.5030 hc        1 MOL      0.043592
    104 H45         1.4860   -1.5540    3.5350 hc        1 MOL      0.043592
    105 H46         2.5860   -2.6470    4.2740 hc        1 MOL      0.043592
    106 H47        -0.6500   -2.8410    4.0140 hc        1 MOL      0.043592
    107 H48        -0.5100   -4.6470    4.1210 hc        1 MOL      0.043592
    108 H49         0.4260   -3.6820    5.1660 hc        1 MOL      0.043592
    109 N10         1.5890   -2.3240   -0.0360 n         1 MOL     -0.049798
    110 C35         2.5940   -2.1800   -1.1220 c3        1 MOL      0.045059
    111 C36         3.9840   -1.9610   -0.5260 c         1 MOL      0.344336
    112 O17         4.1140   -1.6910    0.6660 o         1 MOL     -0.301894
    113 C37         2.1870   -0.8680   -1.9580 c3        1 MOL     -0.323691
    114 C38         2.8330   -0.6950   -3.2640 c         1 MOL      0.749124
    115 N11         2.6220    0.4640   -3.8240 n         1 MOL     -0.775617
    116 O18         3.4930   -1.5380   -3.7710 o         1 MOL     -0.617989
    117 H50         1.1320   -1.4540    0.2060 hn        1 MOL     -0.130403
    118 H51         2.6470   -3.0850   -1.7290 h1        1 MOL      0.093411
    119 H52         2.4850    0.0220   -1.4130 hc        1 MOL      0.132188
    120 H53         1.1190   -0.7770   -2.1970 hc        1 MOL      0.132188
    121 H54         1.9200    0.9250   -3.2620 hn        1 MOL      0.375844
    122 H55         3.0910    0.7340   -4.6720 hn        1 MOL      0.375844
    123 N12         5.0590   -2.0680   -1.2780 n         1 MOL     -0.447555
    124 C39         6.4720   -1.8480   -0.9180 c3        1 MOL      0.219999
    125 C40         6.6520   -0.5020   -0.3480 c         1 MOL      0.648869
    126 O19         7.2280   -0.3970    0.7570 o         1 MOL     -0.569377
    127 C41         7.4370   -2.1440   -2.1180 c3        1 MOL     -0.241064
    128 C42         8.8590   -2.2290   -1.6140 ca        1 MOL      0.178869
    129 C43         9.2860   -3.2810   -0.8100 ca        1 MOL     -0.295928
    130 C44         9.7660   -1.2170   -1.9850 ca        1 MOL     -0.295928
    131 C45        10.5580   -3.3120   -0.2540 ca        1 MOL     -0.134182
    132 C46        11.0840   -1.2430   -1.4560 ca        1 MOL     -0.134182
    133 C47        11.5170   -2.2910   -0.6180 ca        1 MOL      0.222889
    134 O20        12.7610   -2.3120   -0.0640 oh        1 MOL     -0.498778
    135 H56         4.9200   -2.2960   -2.2610 hn        1 MOL      0.255556
    136 H57         6.7800   -2.5750   -0.1560 h1        1 MOL      0.041035
    137 H58         7.3920   -1.3690   -2.8740 hc        1 MOL      0.078112
    138 H59         7.1460   -3.1310   -2.4590 hc        1 MOL      0.078112
    139 H60         8.6530   -4.1320   -0.5950 ha        1 MOL      0.171905
    140 H61         9.4110   -0.4070   -2.5990 ha        1 MOL      0.171905
    141 H62        10.8290   -4.1800    0.3350 ha        1 MOL      0.118529
    142 H63        11.7260   -0.4070   -1.6590 ha        1 MOL      0.118529
    143 H64        13.2470   -1.4930   -0.1600 ho        1 MOL      0.374391
    144 N13         6.2230    0.5920   -0.9500 n         1 MOL     -0.536167
    145 C48         6.3610    1.9790   -0.4890 c3        1 MOL     -0.022337
    146 C49         5.4170    2.2990    0.7410 c         1 MOL      0.427881
    147 O21         5.3710    3.4330    1.2390 o         1 MOL     -0.543079
    148 C50         6.1860    2.9550   -1.6980 c3        1 MOL      0.047968
    149 C51         4.7410    3.0600   -2.2300 c3        1 MOL     -0.044450
    150 C52         4.6910    4.1330   -3.2940 c         1 MOL      0.726494
    151 O22         3.9040    3.9140   -4.2650 o         1 MOL     -0.727360
    152 O23         5.4290    5.1520   -3.3340 o         1 MOL     -0.727360
    153 H65         5.9540    0.6110   -1.9240 hn        1 MOL      0.347154
    154 H66         7.3520    2.1330   -0.0440 h1        1 MOL      0.072550
    155 H67         6.7490    2.5250   -2.5330 hc        1 MOL     -0.014837
    156 H68         6.5440    3.9410   -1.4050 hc        1 MOL     -0.014837
    157 H69         4.0440    3.2300   -1.4180 hc        1 MOL     -0.056844
    158 H70         4.5070    2.1060   -2.7080 hc        1 MOL     -0.056844
    159 N14         4.5790    1.4210    1.1020 n         1 MOL     -0.118969
    160 C53         3.8370    1.4570    2.3320 c3        1 MOL     -0.037583
    161 C54         4.5010    0.5770    3.4580 c         1 MOL      0.416022
    162 O24         4.4060    0.8950    4.6450 o         1 MOL     -0.577640
    163 C55         2.3600    1.0920    2.0170 c3        1 MOL     -0.042997
    164 C56         1.6960    1.8010    0.8920 c3        1 MOL     -0.205782
    165 C57         0.3050    1.2010    0.5630 c         1 MOL      0.712913
    166 O25        -0.6150    1.8860    0.1190 o         1 MOL     -0.644443
    167 O26         0.0870    0.0010    0.6340 o         1 MOL     -0.644443
    168 H71         4.5940    0.5180    0.6430 hn        1 MOL      0.122995
    169 H72         3.8990    2.4660    2.7420 h1        1 MOL      0.064808
    170 H73         1.7350    1.0560    2.9090 hc        1 MOL      0.070204
    171 H74         2.5060    0.0460    1.7380 hc        1 MOL      0.070204
    172 H75         2.2490    1.8310   -0.0570 hc        1 MOL      0.092362
    173 H76         1.5520    2.8310    1.2190 hc        1 MOL      0.092362
    174 N15         5.0140   -0.5360    3.0610 n         1 MOL      0.031880
    175 C58         5.5540   -1.6620    3.8530 c3        1 MOL     -0.264119
    176 H77         5.4750   -2.5820    3.2750 h1        1 MOL      0.098529
    177 H78         6.6010   -1.4710    4.0900 h1        1 MOL      0.098529
    178 H79         4.9850   -1.7630    4.7760 h1        1 MOL      0.098529
    179 H80         5.0180   -0.7180    2.0650 hn        1 MOL     -0.055135
    180 Ca1        -2.5060   -0.2070    0.1570 Ca        1 MOL      1.689280
    181 O27        -1.7970   -0.3700    2.7370 oh        1 MOL     -0.832223
    182 H81        -1.1090    0.0440    3.2450 ho        1 MOL      0.382642
    183 H82        -2.3430   -0.8060    3.3930 ho        1 MOL      0.382642
    184 O28        -4.3570   -1.4090    2.1450 oh        1 MOL     -0.832223
    185 H83        -3.8930   -1.7840    2.8860 ho        1 MOL      0.382642
    186 H84        -4.6170   -0.5340    2.4390 ho        1 MOL      0.382642
    187 O29        -1.4300   -1.0270   -2.0750 oh        1 MOL     -0.832223
    188 H85        -1.7560   -0.3140   -2.6370 ho        1 MOL      0.382642
    189 H86        -1.9060   -1.8060   -2.3810 ho        1 MOL      0.382642
@<TRIPOS>BOND
     1    1    2 1   
     2    1    4 1   
     3    1    5 1   
     4    1    6 1   
     5    2    3 2   
     6    2    7 1   
     7    7    8 1   
     8    7   15 1   
     9    8    9 1   
    10    8   11 1   
    11    8   16 1   
    12    9   10 2   
    13    9   19 1   
    14   11   12 1   
    15   11   17 1   
    16   11   18 1   
    17   12   13 1   
    18   12   14 1   
    19   19   20 1   
    20   19   27 1   
    21   20   21 1   
    22   20   23 1   
    23   20   28 1   
    24   21   22 2   
    25   21   38 1   
    26   23   24 1   
    27   23   25 1   
    28   23   29 1   
    29   24   26 1   
    30   24   30 1   
    31   24   31 1   
    32   25   32 1   
    33   25   33 1   
    34   25   34 1   
    35   26   35 1   
    36   26   36 1   
    37   26   37 1   
    38   38   39 1   
    39   38   46 1   
    40   39   40 1   
    41   39   42 1   
    42   39   47 1   
    43   40   41 2   
    44   40   50 1   
    45   42   43 1   
    46   42   48 1   
    47   42   49 1   
    48   43   44 1   
    49   43   45 1   
    50   50   51 1   
    51   50   54 1   
    52   51   52 1   
    53   51   55 1   
    54   51   56 1   
    55   52   53 2   
    56   52   57 1   
    57   57   58 1   
    58   57   65 1   
    59   58   59 1   
    60   58   61 1   
    61   58   66 1   
    62   59   60 2   
    63   59   69 1   
    64   61   62 1   
    65   61   67 1   
    66   61   68 1   
    67   62   63 1   
    68   62   64 1   
    69   69   70 1   
    70   69   73 1   
    71   70   71 1   
    72   70   74 1   
    73   70   75 1   
    74   71   72 2   
    75   71   76 1   
    76   76   77 1   
    77   76   85 1   
    78   77   78 1   
    79   77   80 1   
    80   77   86 1   
    81   78   79 2   
    82   78   93 1   
    83   80   81 1   
    84   80   87 1   
    85   80   88 1   
    86   81   82 1   
    87   81   89 1   
    88   81   90 1   
    89   82   83 1   
    90   82   84 2   
    91   83   91 1   
    92   83   92 1   
    93   93   94 1   
    94   93  100 1   
    95   94   95 1   
    96   94   97 1   
    97   94  101 1   
    98   95   96 2   
    99   95  109 1   
   100   97   98 1   
   101   97   99 1   
   102   97  102 1   
   103   98  103 1   
   104   98  104 1   
   105   98  105 1   
   106   99  106 1   
   107   99  107 1   
   108   99  108 1   
   109  109  110 1   
   110  109  117 1   
   111  110  111 1   
   112  110  113 1   
   113  110  118 1   
   114  111  112 2   
   115  111  123 1   
   116  113  114 1   
   117  113  119 1   
   118  113  120 1   
   119  114  115 1   
   120  114  116 2   
   121  115  121 1   
   122  115  122 1   
   123  123  124 1   
   124  123  135 1   
   125  124  125 1   
   126  124  127 1   
   127  124  136 1   
   128  125  126 2   
   129  125  144 1   
   130  127  128 1   
   131  127  137 1   
   132  127  138 1   
   133  128  129 ar  
   134  128  130 ar  
   135  129  131 ar  
   136  129  139 1   
   137  130  132 ar  
   138  130  140 1   
   139  131  133 ar  
   140  131  141 1   
   141  132  133 ar  
   142  132  142 1   
   143  133  134 1   
   144  134  143 1   
   145  144  145 1   
   146  144  153 1   
   147  145  146 1   
   148  145  148 1   
   149  145  154 1   
   150  146  147 2   
   151  146  159 1   
   152  148  149 1   
   153  148  155 1   
   154  148  156 1   
   155  149  150 1   
   156  149  157 1   
   157  149  158 1   
   158  150  151 1   
   159  150  152 1   
   160  159  160 1   
   161  159  168 1   
   162  160  161 1   
   163  160  163 1   
   164  160  169 1   
   165  161  162 2   
   166  161  174 1   
   167  163  164 1   
   168  163  170 1   
   169  163  171 1   
   170  164  165 1   
   171  164  172 1   
   172  164  173 1   
   173  165  166 1   
   174  165  167 1   
   175  174  175 1   
   176  174  179 1   
   177  175  176 1   
   178  175  177 1   
   179  175  178 1   
   180  181  182 1   
   181  181  183 1   
   182  184  185 1   
   183  184  186 1   
   184  187  188 1   
   185  187  189 1   
@<TRIPOS>SUBSTRUCTURE
     1 MOL         1 TEMP              0 ****  ****    0 ROOT
