@<TRIPOS>MOLECULE
MOL
  189   185     1     0     0
SMALL
resp


@<TRIPOS>ATOM
      1 C1         -0.5140    2.2340    6.1660 c3        1 MOL     -0.463287
      2 C2         -0.7420    1.9430    4.6810 c         1 MOL      0.754828
      3 O1          0.1480    2.1970    3.8840 o         1 MOL     -0.656104
      4 H1         -1.4180    2.6650    6.5950 hc        1 MOL      0.118546
      5 H2         -0.2730    1.3070    6.6860 hc        1 MOL      0.118546
      6 H3          0.3120    2.9380    6.2770 hc        1 MOL      0.118546
      7 N1         -2.0030    1.6020    4.3230 n         1 MOL     -0.519744
      8 C3         -2.4320    1.4390    2.9140 c3        1 MOL      0.159209
      9 C4         -2.4060    2.8200    2.2320 c         1 MOL      0.293712
     10 O2         -3.4660    3.4920    2.3210 o         1 MOL     -0.487168
     11 C5         -3.7680    0.6250    2.8670 c3        1 MOL     -0.135904
     12 C6         -4.2590    0.3390    1.4990 c         1 MOL      0.690040
     13 O3         -5.4340   -0.1310    1.5160 o         1 MOL     -0.593575
     14 O4         -3.5480    0.5460    0.4870 o         1 MOL     -0.593575
     15 H4         -2.7180    1.4230    5.0040 hn        1 MOL      0.304305
     16 H5         -1.6740    0.8150    2.4360 h1        1 MOL     -0.041128
     17 H6         -4.5610    1.1290    3.4100 hc        1 MOL      0.035359
     18 H7         -3.5530   -0.3730    3.2510 hc        1 MOL      0.035359
     19 N2         -1.3260    3.3140    1.7020 n         1 MOL     -0.002315
     20 C7         -1.2020    4.7510    1.3940 c3        1 MOL     -0.325115
     21 C8         -2.2170    5.2550    0.2840 c         1 MOL      0.516450
     22 O5         -2.7450    6.3900    0.2950 o         1 MOL     -0.577626
     23 C9          0.2490    5.0370    0.9590 c3        1 MOL     -0.046536
     24 C10         1.2460    5.1940    2.1720 c3        1 MOL      0.067939
     25 C11         2.6240    5.7600    1.7850 c3        1 MOL     -0.082546
     26 C12         2.5530    7.1200    1.1740 c3        1 MOL      0.142099
     27 N3          3.9920    7.6460    1.1330 n4        1 MOL     -0.561289
     28 H8         -0.5210    2.6910    1.7050 hn        1 MOL      0.258612
     29 H9         -1.5060    5.3410    2.2590 h1        1 MOL      0.155204
     30 H10         0.2660    5.9720    0.3950 hc        1 MOL      0.022486
     31 H11         0.6300    4.3350    0.2260 hc        1 MOL      0.022486
     32 H12         1.3790    4.1780    2.5320 hc        1 MOL      0.025133
     33 H13         0.8050    5.8460    2.9260 hc        1 MOL      0.025133
     34 H14         2.9760    5.0730    1.0170 hc        1 MOL      0.044139
     35 H15         3.1940    5.8170    2.7150 hc        1 MOL      0.044139
     36 H16         1.9760    7.7860    1.8120 hx        1 MOL      0.064294
     37 H17         2.0800    7.0620    0.1990 hx        1 MOL      0.064294
     38 H18         4.5080    6.9600    0.5930 hn        1 MOL      0.376862
     39 H19         3.9170    8.5070    0.6130 hn        1 MOL      0.376862
     40 H20         4.3260    7.7510    2.0760 hn        1 MOL      0.376862
     41 N4         -2.6720    4.3880   -0.6040 n         1 MOL     -0.349530
     42 C13        -3.5450    4.7050   -1.7390 c3        1 MOL      0.324881
     43 C14        -4.9300    4.0290   -1.6740 c         1 MOL      0.411829
     44 O6         -5.8790    4.7270   -1.9940 o         1 MOL     -0.559768
     45 C15        -2.8460    4.2100   -3.0660 c3        1 MOL     -0.508608
     46 C16        -2.0490    2.9050   -3.0040 c         1 MOL      0.909422
     47 O7         -2.3060    2.1120   -2.0760 o         1 MOL     -0.758101
     48 O8         -1.0300    2.7060   -3.7330 o         1 MOL     -0.758101
     49 H21        -2.4110    3.4150   -0.5420 hn        1 MOL      0.181588
     50 H22        -3.7670    5.7690   -1.8710 h1        1 MOL      0.043351
     51 H23        -2.2110    5.0210   -3.4260 hc        1 MOL      0.101819
     52 H24        -3.6110    4.0880   -3.8300 hc        1 MOL      0.101819
     53 N5         -4.9710    2.8380   -1.0920 n         1 MOL     -0.067677
     54 C17        -6.1540    2.1890   -0.5890 c3        1 MOL     -0.109191
     55 C18        -6.7890    1.0770   -1.4600 c         1 MOL      0.499622
     56 O9         -7.4230    1.3930   -2.4510 o         1 MOL     -0.551872
     57 H25        -4.1060    2.3270   -0.9720 hn        1 MOL      0.114743
     58 H26        -6.9520    2.8430   -0.2610 h1        1 MOL      0.061503
     59 H27        -5.8970    1.7010    0.3520 h1        1 MOL      0.061503
     60 N6         -6.4380   -0.1640   -1.2100 n         1 MOL     -0.182518
     61 C19        -6.8850   -1.4010   -1.8940 c3        1 MOL      0.005224
     62 C20        -7.1360   -2.6180   -0.9270 c         1 MOL      0.426533
     63 O10        -7.4980   -3.6970   -1.3440 o         1 MOL     -0.482609
     64 C21        -5.7820   -1.8380   -2.9620 c3        1 MOL     -0.277753
     65 C22        -4.4580   -1.5110   -2.4950 c         1 MOL      0.815169
     66 O11        -3.7780   -0.6740   -3.1330 o         1 MOL     -0.722537
     67 O12        -4.0460   -1.9650   -1.3810 o         1 MOL     -0.722537
     68 H28        -5.8460   -0.3210   -0.3980 hn        1 MOL      0.011598
     69 H29        -7.8210   -1.1230   -2.3640 h1        1 MOL      0.087278
     70 H30        -5.9120   -1.1760   -3.8260 hc        1 MOL      0.080721
     71 H31        -5.8420   -2.8990   -3.1790 hc        1 MOL      0.080721
     72 N7         -6.8680   -2.4070    0.4120 n         1 MOL     -0.308738
     73 C23        -6.7760   -3.4110    1.4350 c3        1 MOL     -0.146066
     74 C24        -5.4470   -4.1660    1.3800 c         1 MOL      0.478130
     75 O13        -5.3340   -5.2510    1.9990 o         1 MOL     -0.600431
     76 H32        -6.3390   -1.5960    0.7130 hn        1 MOL      0.230656
     77 H33        -7.5760   -4.1450    1.3120 h1        1 MOL      0.103604
     78 H34        -6.8360   -2.8480    2.3560 h1        1 MOL      0.103604
     79 N8         -4.3820   -3.7150    0.8260 n         1 MOL     -0.013614
     80 C25        -3.0410   -4.3240    0.8970 c3        1 MOL     -0.497646
     81 C26        -1.9030   -3.3680    1.0240 c         1 MOL      0.820210
     82 O14        -1.8790   -2.2000    0.5230 o         1 MOL     -0.702771
     83 C27        -2.8080   -5.2790   -0.2770 c3        1 MOL      0.434359
     84 C28        -3.6440   -6.5160   -0.2280 c3        1 MOL     -0.529601
     85 O15        -3.0430   -4.5550   -1.4560 oh        1 MOL     -0.544965
     86 H35        -4.4130   -2.8750    0.2770 hn        1 MOL      0.198073
     87 H36        -2.9960   -4.9690    1.7760 h1        1 MOL      0.183153
     88 H37        -1.7510   -5.4910   -0.4230 h1        1 MOL      0.005212
     89 H38        -3.2380   -3.6530   -1.2240 ho        1 MOL      0.336413
     90 H39        -3.5470   -6.9560    0.7600 hc        1 MOL      0.147060
     91 H40        -4.6770   -6.3030   -0.5080 hc        1 MOL      0.147060
     92 H41        -3.3140   -7.1840   -1.0210 hc        1 MOL      0.147060
     93 N9         -0.8690   -3.7940    1.8000 n         1 MOL     -0.660135
     94 C29         0.4550   -3.1710    1.8400 c3        1 MOL      0.164088
     95 C30         1.4490   -3.7920    0.8180 c         1 MOL      0.392470
     96 O16         1.4790   -5.0260    0.6320 o         1 MOL     -0.540717
     97 C31         1.1070   -3.1070    3.2400 c3        1 MOL      0.082654
     98 C32         0.7160   -1.8400    4.0390 c3        1 MOL      0.095090
     99 C33         2.6650   -3.2120    3.2650 c3        1 MOL     -0.213921
    100 C34        -0.7950   -1.6710    4.0990 c3        1 MOL     -0.012550
    101 H42        -0.9620   -4.5850    2.4220 hn        1 MOL      0.328554
    102 H43         0.2840   -2.1400    1.5240 h1        1 MOL      0.040693
    103 H44         0.7670   -3.9870    3.7910 hc        1 MOL      0.032217
    104 H45         1.1730   -0.9400    3.6290 hc        1 MOL     -0.034285
    105 H46         0.9410   -2.1030    5.0660 hc        1 MOL     -0.034285
    106 H47         3.1980   -2.3400    2.9030 hc        1 MOL      0.044099
    107 H48         2.9600   -3.3350    4.3120 hc        1 MOL      0.044099
    108 H49         3.0800   -4.1070    2.7990 hc        1 MOL      0.044099
    109 H50        -1.3490   -2.6040    4.1550 hc        1 MOL     -0.001775
    110 H51        -1.0620   -1.0360    4.9420 hc        1 MOL     -0.001775
    111 H52        -1.1890   -1.1340    3.2410 hc        1 MOL     -0.001775
    112 N10         2.3830   -3.0100    0.2550 n         1 MOL      0.063136
    113 C35         3.3840   -3.4200   -0.7250 c3        1 MOL     -0.174922
    114 C36         4.7720   -2.8990   -0.3630 c         1 MOL      0.344117
    115 O17         5.0230   -2.3340    0.7110 o         1 MOL     -0.322078
    116 C37         2.9850   -2.9320   -2.1010 c3        1 MOL      0.521811
    117 C38         1.7540   -3.6250   -2.6940 c3        1 MOL     -0.537736
    118 O18         2.7680   -1.5260   -2.0590 oh        1 MOL     -0.716993
    119 H53         2.3070   -2.0350    0.5050 hn        1 MOL     -0.150077
    120 H54         3.4000   -4.5110   -0.7640 h1        1 MOL      0.099173
    121 H55         3.8410   -3.1460   -2.7470 h1        1 MOL     -0.040943
    122 H56         2.0650   -1.3870   -1.4210 ho        1 MOL      0.425371
    123 H57         1.0200   -3.2380   -1.9940 hc        1 MOL      0.152457
    124 H58         1.5410   -3.3000   -3.7090 hc        1 MOL      0.152457
    125 H59         1.8140   -4.7040   -2.5250 hc        1 MOL      0.152457
    126 N11         5.8280   -3.1730   -1.1830 n         1 MOL     -0.323437
    127 C39         7.2350   -2.7180   -1.0010 c3        1 MOL     -0.103542
    128 C40         7.4030   -1.2850   -0.6150 c         1 MOL      0.384694
    129 O19         8.0740   -1.0120    0.3640 o         1 MOL     -0.517143
    130 C41         8.0340   -2.9800   -2.3350 c3        1 MOL      0.336780
    131 C42         8.4170   -4.4110   -2.5520 c3        1 MOL     -0.298404
    132 O20         7.3460   -2.5060   -3.4700 oh        1 MOL     -0.664686
    133 H60         5.6080   -3.7310   -2.0010 hn        1 MOL      0.279751
    134 H61         7.6550   -3.3690   -0.2250 h1        1 MOL      0.138287
    135 H62         9.0130   -2.5000   -2.4040 h1        1 MOL      0.033586
    136 H63         7.8420   -2.7720   -4.2450 ho        1 MOL      0.421224
    137 H64         9.3140   -4.5070   -1.9250 hc        1 MOL      0.080930
    138 H65         7.6000   -5.1070   -2.3260 hc        1 MOL      0.080930
    139 H66         8.6000   -4.5550   -3.6080 hc        1 MOL      0.080930
    140 N12         6.6490   -0.4080   -1.2020 n         1 MOL     -0.209734
    141 C43         6.8020    1.0540   -1.0200 c3        1 MOL     -0.126860
    142 C44         5.8380    1.4700    0.0650 c         1 MOL      0.628352
    143 O21         5.5900    2.6870    0.1780 o         1 MOL     -0.632957
    144 C45         6.5710    1.7720   -2.4290 c3        1 MOL      0.056989
    145 C46         5.1730    1.6910   -3.0010 c3        1 MOL     -0.012668
    146 C47         4.7920    2.8970   -3.8270 c3        1 MOL     -0.188894
    147 C48         3.3740    2.6970   -4.3910 c3        1 MOL      0.174363
    148 N13         3.1200    3.7880   -5.3210 n4        1 MOL     -0.411777
    149 H67         6.1470   -0.7880   -1.9940 hn        1 MOL      0.230673
    150 H68         7.8020    1.2730   -0.6690 h1        1 MOL      0.140781
    151 H69         7.3430    1.3670   -3.0900 hc        1 MOL      0.004559
    152 H70         6.8290    2.8250   -2.3350 hc        1 MOL      0.004559
    153 H71         4.4020    1.5360   -2.2470 hc        1 MOL      0.048153
    154 H72         5.2700    0.7830   -3.6020 hc        1 MOL      0.048153
    155 H73         5.4880    3.1200   -4.6410 hc        1 MOL      0.061703
    156 H74         4.7530    3.7550   -3.1670 hc        1 MOL      0.061703
    157 H75         2.6690    2.8080   -3.5620 hx        1 MOL      0.076681
    158 H76         3.3390    1.7040   -4.8420 hx        1 MOL      0.076681
    159 H77         2.1610    3.6650   -5.6190 hn        1 MOL      0.337073
    160 H78         3.2970    4.7040   -4.9130 hn        1 MOL      0.337073
    161 H79         3.7390    3.6710   -6.1090 hn        1 MOL      0.337073
    162 N14         5.1980    0.5750    0.8220 n         1 MOL     -0.409749
    163 C49         4.2810    0.9310    1.9600 c3        1 MOL      0.021519
    164 C50         4.7650    0.2750    3.3500 c         1 MOL      0.361975
    165 O22         4.5100    0.7420    4.4440 o         1 MOL     -0.496985
    166 C51         2.8760    0.4790    1.6480 c3        1 MOL      0.040012
    167 C52         2.2030    1.1180    0.4070 c3        1 MOL      0.380807
    168 C53         0.8350    0.5510    0.1320 c         1 MOL      0.553951
    169 O23         0.7660   -0.6240   -0.4380 o         1 MOL     -0.682321
    170 O24        -0.2150    1.2600    0.0500 o         1 MOL     -0.682321
    171 H80         5.2810   -0.4230    0.6900 hn        1 MOL      0.128087
    172 H81         4.1300    2.0090    2.0600 h1        1 MOL      0.053207
    173 H82         2.2310    0.6860    2.4980 hc        1 MOL      0.060498
    174 H83         2.9550   -0.5970    1.5030 hc        1 MOL      0.060498
    175 H84         2.7550    0.9780   -0.5150 hc        1 MOL     -0.108033
    176 H85         2.0620    2.1770    0.6130 hc        1 MOL     -0.108033
    177 N15         5.5350   -0.8610    3.2170 n         1 MOL     -0.150417
    178 C54         5.9850   -1.7390    4.3260 c3        1 MOL     -0.088204
    179 H86         5.3470   -1.5800    5.1960 h1        1 MOL      0.066177
    180 H87         5.9200   -2.7810    4.0140 h1        1 MOL      0.066177
    181 H88         7.0170   -1.4990    4.5840 h1        1 MOL      0.066177
    182 H89         5.7520   -1.1040    2.2690 hn        1 MOL      0.174980
    183 Ca1        -1.8190   -0.2780   -1.2730 Ca        1 MOL      1.784950
    184 O25        -0.1570    0.3370   -3.4660 oh        1 MOL     -0.851317
    185 H90        -0.5750    1.1960   -3.5610 ho        1 MOL      0.379553
    186 H91         0.7170    0.4600   -3.8290 ho        1 MOL      0.379553
    187 O26        -1.4710   -2.6130   -2.6890 oh        1 MOL     -0.851317
    188 H92        -0.7710   -2.9210   -3.2650 ho        1 MOL      0.379553
    189 H93        -2.1500   -3.2880   -2.7740 ho        1 MOL      0.379553
@<TRIPOS>BOND
     1    1    2 1   
     2    1    4 1   
     3    1    5 1   
     4    1    6 1   
     5    2    3 2   
     6    2    7 1   
     7    7    8 1   
     8    7   15 1   
     9    8    9 1   
    10    8   11 1   
    11    8   16 1   
    12    9   10 2   
    13    9   19 1   
    14   11   12 1   
    15   11   17 1   
    16   11   18 1   
    17   12   13 1   
    18   12   14 1   
    19   19   20 1   
    20   19   28 1   
    21   20   21 1   
    22   20   23 1   
    23   20   29 1   
    24   21   22 2   
    25   21   41 1   
    26   23   24 1   
    27   23   30 1   
    28   23   31 1   
    29   24   25 1   
    30   24   32 1   
    31   24   33 1   
    32   25   26 1   
    33   25   34 1   
    34   25   35 1   
    35   26   27 1   
    36   26   36 1   
    37   26   37 1   
    38   27   38 1   
    39   27   39 1   
    40   27   40 1   
    41   41   42 1   
    42   41   49 1   
    43   42   43 1   
    44   42   45 1   
    45   42   50 1   
    46   43   44 2   
    47   43   53 1   
    48   45   46 1   
    49   45   51 1   
    50   45   52 1   
    51   46   47 1   
    52   46   48 1   
    53   53   54 1   
    54   53   57 1   
    55   54   55 1   
    56   54   58 1   
    57   54   59 1   
    58   55   56 2   
    59   55   60 1   
    60   60   61 1   
    61   60   68 1   
    62   61   62 1   
    63   61   64 1   
    64   61   69 1   
    65   62   63 2   
    66   62   72 1   
    67   64   65 1   
    68   64   70 1   
    69   64   71 1   
    70   65   66 1   
    71   65   67 1   
    72   72   73 1   
    73   72   76 1   
    74   73   74 1   
    75   73   77 1   
    76   73   78 1   
    77   74   75 2   
    78   74   79 1   
    79   79   80 1   
    80   79   86 1   
    81   80   81 1   
    82   80   83 1   
    83   80   87 1   
    84   81   82 2   
    85   81   93 1   
    86   83   84 1   
    87   83   85 1   
    88   83   88 1   
    89   84   90 1   
    90   84   91 1   
    91   84   92 1   
    92   85   89 1   
    93   93   94 1   
    94   93  101 1   
    95   94   95 1   
    96   94   97 1   
    97   94  102 1   
    98   95   96 2   
    99   95  112 1   
   100   97   98 1   
   101   97   99 1   
   102   97  103 1   
   103   98  100 1   
   104   98  104 1   
   105   98  105 1   
   106   99  106 1   
   107   99  107 1   
   108   99  108 1   
   109  100  109 1   
   110  100  110 1   
   111  100  111 1   
   112  112  113 1   
   113  112  119 1   
   114  113  114 1   
   115  113  116 1   
   116  113  120 1   
   117  114  115 2   
   118  114  126 1   
   119  116  117 1   
   120  116  118 1   
   121  116  121 1   
   122  117  123 1   
   123  117  124 1   
   124  117  125 1   
   125  118  122 1   
   126  126  127 1   
   127  126  133 1   
   128  127  128 1   
   129  127  130 1   
   130  127  134 1   
   131  128  129 2   
   132  128  140 1   
   133  130  131 1   
   134  130  132 1   
   135  130  135 1   
   136  131  137 1   
   137  131  138 1   
   138  131  139 1   
   139  132  136 1   
   140  140  141 1   
   141  140  149 1   
   142  141  142 1   
   143  141  144 1   
   144  141  150 1   
   145  142  143 2   
   146  142  162 1   
   147  144  145 1   
   148  144  151 1   
   149  144  152 1   
   150  145  146 1   
   151  145  153 1   
   152  145  154 1   
   153  146  147 1   
   154  146  155 1   
   155  146  156 1   
   156  147  148 1   
   157  147  157 1   
   158  147  158 1   
   159  148  159 1   
   160  148  160 1   
   161  148  161 1   
   162  162  163 1   
   163  162  171 1   
   164  163  164 1   
   165  163  166 1   
   166  163  172 1   
   167  164  165 2   
   168  164  177 1   
   169  166  167 1   
   170  166  173 1   
   171  166  174 1   
   172  167  168 1   
   173  167  175 1   
   174  167  176 1   
   175  168  169 1   
   176  168  170 1   
   177  177  178 1   
   178  177  182 1   
   179  178  179 1   
   180  178  180 1   
   181  178  181 1   
   182  184  185 1   
   183  184  186 1   
   184  187  188 1   
   185  187  189 1   
@<TRIPOS>SUBSTRUCTURE
     1 MOL         1 TEMP              0 ****  ****    0 ROOT
