@<TRIPOS>MOLECULE
MOL
  172   171     1     0     0
SMALL
resp


@<TRIPOS>ATOM
      1 C1          0.0380   -2.6900    5.8910 c3        1 MOL     -0.485517
      2 C2          0.5710   -2.7280    4.4550 c         1 MOL      0.709149
      3 O1         -0.1120   -3.2230    3.6060 o         1 MOL     -0.546565
      4 H1          0.8490   -2.4330    6.5720 hc        1 MOL      0.116876
      5 H2         -0.7510   -1.9410    5.9670 hc        1 MOL      0.116876
      6 H3         -0.3620   -3.6680    6.1570 hc        1 MOL      0.116876
      7 N1          1.8220   -2.2830    4.2880 n         1 MOL     -0.557303
      8 C3          2.4280   -2.1800    2.9930 c3        1 MOL      0.166448
      9 C4          2.8590   -3.4980    2.2450 c         1 MOL      0.519307
     10 O2          3.8380   -4.1540    2.4720 o         1 MOL     -0.581910
     11 C5          3.6130   -1.2060    3.0730 c3        1 MOL     -0.195229
     12 C6          4.0130   -0.6070    1.7510 c         1 MOL      0.734428
     13 O3          3.2610   -0.8300    0.7620 o         1 MOL     -0.697490
     14 O4          5.1000   -0.0150    1.7600 o         1 MOL     -0.697490
     15 H4          2.3410   -2.0550    5.1190 hn        1 MOL      0.302909
     16 H5          1.7460   -1.7140    2.2680 h1        1 MOL      0.014931
     17 H6          4.4750   -1.6440    3.5790 hc        1 MOL      0.045533
     18 H7          3.2320   -0.3750    3.6750 hc        1 MOL      0.045533
     19 N2          2.0290   -3.9220    1.2390 n         1 MOL     -0.408973
     20 C7          2.1370   -5.0800    0.4180 c3        1 MOL      0.221626
     21 C8          3.1350   -4.9850   -0.7500 c         1 MOL      0.392696
     22 O5          3.3500   -5.9860   -1.3880 o         1 MOL     -0.563443
     23 C9          0.7430   -5.4420    0.0020 c3        1 MOL     -0.086581
     24 H8          1.2500   -3.3300    1.0130 hn        1 MOL      0.243623
     25 H9          2.4080   -5.9340    1.0280 h1        1 MOL      0.032797
     26 H10         0.1000   -5.5980    0.8660 hc        1 MOL      0.022529
     27 H11         0.2800   -4.8690   -0.7970 hc        1 MOL      0.022529
     28 H12         0.7660   -6.4740   -0.3390 hc        1 MOL      0.022529
     29 N3          3.8140   -3.8600   -1.0290 n         1 MOL     -0.102891
     30 C10         4.9100   -3.7790   -1.9760 c3        1 MOL      0.023513
     31 C11         6.2240   -3.3410   -1.2720 c         1 MOL      0.387952
     32 O6          7.3740   -3.5280   -1.7290 o         1 MOL     -0.539106
     33 C12         4.5520   -2.8530   -3.1230 c3        1 MOL     -0.000457
     34 C13         3.1030   -2.6380   -3.4340 c         1 MOL      0.630401
     35 O7          2.5700   -1.5940   -3.0720 o         1 MOL     -0.679214
     36 O8          2.4650   -3.3980   -4.2220 o         1 MOL     -0.679214
     37 H13         3.4950   -3.0610   -0.4930 hn        1 MOL      0.001048
     38 H14         5.2330   -4.7390   -2.3660 h1        1 MOL      0.081872
     39 H15         5.0230   -3.2540   -4.0250 hc        1 MOL     -0.014082
     40 H16         5.0500   -1.9120   -2.9020 hc        1 MOL     -0.014082
     41 N4          6.0360   -2.6140   -0.1870 n         1 MOL     -0.189554
     42 C14         7.1130   -2.1330    0.6200 c3        1 MOL     -0.074270
     43 C15         7.6750   -0.8180    0.1500 c         1 MOL      0.488185
     44 O9          8.8660   -0.5260    0.3000 o         1 MOL     -0.581800
     45 H17         5.1560   -2.3070    0.2060 hn        1 MOL      0.146085
     46 H18         7.9270   -2.8480    0.7740 h1        1 MOL      0.082582
     47 H19         6.7830   -1.8440    1.6170 h1        1 MOL      0.082582
     48 N5          6.7940    0.0100   -0.4970 n         1 MOL     -0.216752
     49 C16         7.2020    1.1650   -1.3020 c3        1 MOL     -0.006810
     50 C17         7.0370    2.5140   -0.5230 c         1 MOL      0.348153
     51 O10         7.5660    3.5720   -0.9870 o         1 MOL     -0.553769
     52 C18         6.3580    1.0650   -2.6360 c3        1 MOL     -0.087397
     53 C19         4.8470    1.3730   -2.5100 c         1 MOL      0.574069
     54 N6          4.3580    2.0950   -3.4530 n         1 MOL     -0.685751
     55 O11         4.2450    1.0510   -1.4980 o         1 MOL     -0.668095
     56 H20         5.8260   -0.1260   -0.2630 hn        1 MOL      0.221545
     57 H21         8.2670    1.0940   -1.5110 h1        1 MOL      0.115428
     58 H22         6.4010    0.0370   -2.9860 hc        1 MOL      0.030979
     59 H23         6.8450    1.7350   -3.3470 hc        1 MOL      0.030979
     60 H24         4.9640    2.4270   -4.1980 hn        1 MOL      0.340766
     61 H25         3.3970    2.4050   -3.4970 hn        1 MOL      0.340766
     62 N7          6.3480    2.6100    0.6180 n         1 MOL     -0.038066
     63 C20         6.2930    3.7280    1.5260 c3        1 MOL     -0.275703
     64 C21         4.9590    4.4780    1.6090 c         1 MOL      0.655773
     65 O12         4.8040    5.4950    2.2680 o         1 MOL     -0.611690
     66 H26         5.9380    1.7440    0.9490 hn        1 MOL      0.169697
     67 H27         7.0850    4.4130    1.2200 h1        1 MOL      0.107939
     68 H28         6.4990    3.3060    2.5050 h1        1 MOL      0.107939
     69 N8          4.0490    3.9500    0.8860 n         1 MOL     -0.398777
     70 C22         2.7300    4.5290    0.6670 c3        1 MOL     -0.070805
     71 C23         1.6870    3.4470    0.6410 c         1 MOL      0.663248
     72 O13         1.8340    2.3330    0.1400 o         1 MOL     -0.604182
     73 C24         2.5970    5.3360   -0.6860 c3        1 MOL      0.326523
     74 C25         3.3520    6.6690   -0.6740 c3        1 MOL     -0.441045
     75 O14         3.0030    4.5820   -1.7920 oh        1 MOL     -0.551718
     76 H29         4.3700    3.1790    0.3090 hn        1 MOL      0.333358
     77 H30         2.4370    5.2200    1.4630 h1        1 MOL      0.099109
     78 H31         1.5460    5.6090   -0.8240 h1        1 MOL     -0.002222
     79 H32         3.1000    5.2380   -2.4900 ho        1 MOL      0.379169
     80 H33         3.3320    7.1400    0.3060 hc        1 MOL      0.114393
     81 H34         4.4030    6.5530   -0.9390 hc        1 MOL      0.114393
     82 H35         2.9720    7.3620   -1.4270 hc        1 MOL      0.114393
     83 N9          0.4530    3.7690    1.1750 n         1 MOL     -0.573477
     84 C26        -0.7460    2.9280    1.2240 c3        1 MOL      0.044239
     85 C27        -1.4360    2.9870   -0.1830 c         1 MOL      0.544632
     86 O15        -1.8330    4.0650   -0.6990 o         1 MOL     -0.601528
     87 C28        -1.5480    3.3170    2.5140 c3        1 MOL      0.054812
     88 C29        -0.8400    2.8320    3.8120 c3        1 MOL      0.333671
     89 C30        -2.9910    2.7060    2.5020 c3        1 MOL     -0.252022
     90 C31        -1.3210    3.4330    5.1140 c3        1 MOL     -0.305769
     91 H36         0.3170    4.7100    1.5190 hn        1 MOL      0.263998
     92 H37        -0.4410    1.8990    1.3950 h1        1 MOL      0.090963
     93 H38        -1.7070    4.3790    2.6680 hc        1 MOL      0.002769
     94 H39         0.2040    3.1260    3.7470 hc        1 MOL     -0.065755
     95 H40        -0.8650    1.7460    3.7850 hc        1 MOL     -0.065755
     96 H41        -3.7220    3.1800    1.8410 hc        1 MOL      0.048253
     97 H42        -2.9160    1.6500    2.2420 hc        1 MOL      0.048253
     98 H43        -3.4040    2.6750    3.5110 hc        1 MOL      0.048253
     99 H44        -2.2370    2.9220    5.4100 hc        1 MOL      0.059536
    100 H45        -0.4660    3.2860    5.7630 hc        1 MOL      0.059536
    101 H46        -1.5840    4.4880    5.0590 hc        1 MOL      0.059536
    102 N10        -1.9140    1.8390   -0.7240 n         1 MOL     -0.108864
    103 C32        -2.8750    1.7570   -1.7360 c3        1 MOL      0.031449
    104 C33        -4.2910    1.4450   -1.1440 c         1 MOL      0.469576
    105 O16        -4.3990    0.9400   -0.0610 o         1 MOL     -0.315191
    106 C34        -2.4970    0.5720   -2.6180 c3        1 MOL     -0.301633
    107 C35        -1.0810    0.3450   -3.1180 c         1 MOL      0.791794
    108 O17        -0.6810    0.9680   -4.1380 o         1 MOL     -0.704733
    109 O18        -0.3330   -0.5140   -2.5710 o         1 MOL     -0.704733
    110 H47        -1.5870    1.0010   -0.2490 hn        1 MOL     -0.115863
    111 H48        -2.8270    2.6500   -2.3500 h1        1 MOL      0.067508
    112 H49        -3.2210    0.5170   -3.4320 hc        1 MOL      0.076629
    113 H50        -2.6860   -0.2980   -1.9880 hc        1 MOL      0.076629
    114 N11        -5.3890    1.5690   -1.8560 n         1 MOL     -0.681111
    115 C36        -6.7650    1.3260   -1.3510 c3        1 MOL      0.488034
    116 C37        -7.0610    0.0030   -0.6330 c         1 MOL      0.294902
    117 O19        -7.5840    0.0550    0.5340 o         1 MOL     -0.464562
    118 C38        -7.8140    1.5810   -2.4190 c3        1 MOL     -0.394909
    119 C39        -9.2430    1.1460   -1.9460 ca        1 MOL      0.253032
    120 C40        -9.8400    1.9180   -0.9520 ca        1 MOL     -0.287402
    121 C41        -9.9220    0.0980   -2.5580 ca        1 MOL     -0.287402
    122 C42       -11.1110    1.5090   -0.4630 ca        1 MOL     -0.034962
    123 C43       -11.2660   -0.1660   -2.2010 ca        1 MOL     -0.034962
    124 C44       -11.8440    0.5660   -1.1680 ca        1 MOL     -0.165193
    125 H51        -5.3180    1.9360   -2.7870 hn        1 MOL      0.338048
    126 H52        -6.9610    2.0580   -0.5730 h1        1 MOL      0.021186
    127 H53        -7.6540    0.9820   -3.3160 hc        1 MOL      0.100552
    128 H54        -7.8040    2.6490   -2.6290 hc        1 MOL      0.100552
    129 H55        -9.4190    2.8000   -0.4770 ha        1 MOL      0.151926
    130 H56        -9.4790   -0.4980   -3.3490 ha        1 MOL      0.151926
    131 H57       -11.5700    2.0190    0.3660 ha        1 MOL      0.099072
    132 H58       -11.7820   -0.9870   -2.6830 ha        1 MOL      0.099072
    133 H59       -12.8950    0.5030   -0.9070 ha        1 MOL      0.101528
    134 N12        -6.5890   -1.1610   -1.0960 n         1 MOL     -0.052790
    135 C45        -6.7860   -2.4660   -0.3790 c3        1 MOL     -0.041681
    136 C46        -5.9370   -2.5050    0.8740 c         1 MOL      0.385742
    137 O20        -6.3720   -3.1400    1.8990 o         1 MOL     -0.538826
    138 C47        -6.3780   -3.6070   -1.3120 c3        1 MOL     -0.114330
    139 C48        -5.4810   -2.9320   -2.3400 c3        1 MOL     -0.012558
    140 C49        -5.8090   -1.4070   -2.2580 c3        1 MOL      0.022178
    141 H60        -7.8040   -2.5730   -0.0230 h1        1 MOL      0.079590
    142 H61        -5.9630   -4.4850   -0.8060 hc        1 MOL      0.061770
    143 H62        -7.2140   -3.9010   -1.9410 hc        1 MOL      0.061770
    144 H63        -4.4050   -3.0030   -2.1600 hc        1 MOL      0.039313
    145 H64        -5.7240   -3.3350   -3.3180 hc        1 MOL      0.039313
    146 H65        -4.8900   -0.8390   -2.1070 h1        1 MOL     -0.008835
    147 H66        -6.4630   -1.0520   -3.0550 h1        1 MOL     -0.008835
    148 N13        -4.8760   -1.7410    0.9190 n         1 MOL     -0.202552
    149 C50        -4.0250   -1.5850    2.0830 c3        1 MOL     -0.174344
    150 C51        -4.6100   -0.5970    3.0100 c         1 MOL      0.430924
    151 O21        -4.3520   -0.6000    4.2060 o         1 MOL     -0.560820
    152 C52        -2.5630   -1.2260    1.7000 c3        1 MOL      0.014258
    153 C53        -1.8170   -2.1360    0.7470 c3        1 MOL      0.038942
    154 C54        -0.5400   -1.4770    0.2670 c         1 MOL      0.648211
    155 O22        -0.3390   -0.2610    0.4050 o         1 MOL     -0.661691
    156 O23         0.3320   -2.1370   -0.3370 o         1 MOL     -0.661691
    157 H67        -4.6890   -1.1430    0.1350 hn        1 MOL      0.307806
    158 H68        -3.9600   -2.5230    2.6260 h1        1 MOL      0.129052
    159 H69        -2.0150   -1.2340    2.6400 hc        1 MOL      0.063105
    160 H70        -2.5860   -0.2010    1.3260 hc        1 MOL      0.063105
    161 H71        -2.4250   -2.3810   -0.1190 hc        1 MOL     -0.009853
    162 H72        -1.5230   -3.0510    1.2500 hc        1 MOL     -0.009853
    163 N14        -5.4830    0.3100    2.4950 n         1 MOL      0.096966
    164 C55        -6.1970    1.1420    3.4150 c3        1 MOL     -0.107401
    165 H73        -7.2200    1.2790    3.0630 h1        1 MOL      0.039745
    166 H74        -6.2120    0.6680    4.3970 h1        1 MOL      0.039745
    167 H75        -5.7040    2.1120    3.4870 h1        1 MOL      0.039745
    168 H76        -5.7220    0.2620    1.5120 hn        1 MOL     -0.085500
    169 Ca1         1.7620   -0.0800   -1.1890 Ca        1 MOL      1.745066
    170 O24         1.3560    1.9390   -2.8590 oh        1 MOL     -0.807564
    171 H77         1.1530    2.8500   -2.6570 ho        1 MOL      0.377328
    172 H78         0.7030    1.6790   -3.5040 ho        1 MOL      0.377328
@<TRIPOS>BOND
     1    1    2 1   
     2    1    4 1   
     3    1    5 1   
     4    1    6 1   
     5    2    3 2   
     6    2    7 1   
     7    7    8 1   
     8    7   15 1   
     9    8    9 1   
    10    8   11 1   
    11    8   16 1   
    12    9   10 2   
    13    9   19 1   
    14   11   12 1   
    15   11   17 1   
    16   11   18 1   
    17   12   13 1   
    18   12   14 1   
    19   19   20 1   
    20   19   24 1   
    21   20   21 1   
    22   20   23 1   
    23   20   25 1   
    24   21   22 2   
    25   21   29 1   
    26   23   26 1   
    27   23   27 1   
    28   23   28 1   
    29   29   30 1   
    30   29   37 1   
    31   30   31 1   
    32   30   33 1   
    33   30   38 1   
    34   31   32 2   
    35   31   41 1   
    36   33   34 1   
    37   33   39 1   
    38   33   40 1   
    39   34   35 1   
    40   34   36 1   
    41   41   42 1   
    42   41   45 1   
    43   42   43 1   
    44   42   46 1   
    45   42   47 1   
    46   43   44 2   
    47   43   48 1   
    48   48   49 1   
    49   48   56 1   
    50   49   50 1   
    51   49   52 1   
    52   49   57 1   
    53   50   51 2   
    54   50   62 1   
    55   52   53 1   
    56   52   58 1   
    57   52   59 1   
    58   53   54 1   
    59   53   55 2   
    60   54   60 1   
    61   54   61 1   
    62   62   63 1   
    63   62   66 1   
    64   63   64 1   
    65   63   67 1   
    66   63   68 1   
    67   64   65 2   
    68   64   69 1   
    69   69   70 1   
    70   69   76 1   
    71   70   71 1   
    72   70   73 1   
    73   70   77 1   
    74   71   72 2   
    75   71   83 1   
    76   73   74 1   
    77   73   75 1   
    78   73   78 1   
    79   74   80 1   
    80   74   81 1   
    81   74   82 1   
    82   75   79 1   
    83   83   84 1   
    84   83   91 1   
    85   84   85 1   
    86   84   87 1   
    87   84   92 1   
    88   85   86 2   
    89   85  102 1   
    90   87   88 1   
    91   87   89 1   
    92   87   93 1   
    93   88   90 1   
    94   88   94 1   
    95   88   95 1   
    96   89   96 1   
    97   89   97 1   
    98   89   98 1   
    99   90   99 1   
   100   90  100 1   
   101   90  101 1   
   102  102  103 1   
   103  102  110 1   
   104  103  104 1   
   105  103  106 1   
   106  103  111 1   
   107  104  105 2   
   108  104  114 1   
   109  106  107 1   
   110  106  112 1   
   111  106  113 1   
   112  107  108 1   
   113  107  109 1   
   114  114  115 1   
   115  114  125 1   
   116  115  116 1   
   117  115  118 1   
   118  115  126 1   
   119  116  117 2   
   120  116  134 1   
   121  118  119 1   
   122  118  127 1   
   123  118  128 1   
   124  119  120 ar  
   125  119  121 ar  
   126  120  122 ar  
   127  120  129 1   
   128  121  123 ar  
   129  121  130 1   
   130  122  124 ar  
   131  122  131 1   
   132  123  124 ar  
   133  123  132 1   
   134  124  133 1   
   135  134  135 1   
   136  134  140 1   
   137  135  136 1   
   138  135  138 1   
   139  135  141 1   
   140  136  137 2   
   141  136  148 1   
   142  138  139 1   
   143  138  142 1   
   144  138  143 1   
   145  139  140 1   
   146  139  144 1   
   147  139  145 1   
   148  140  146 1   
   149  140  147 1   
   150  148  149 1   
   151  148  157 1   
   152  149  150 1   
   153  149  152 1   
   154  149  158 1   
   155  150  151 2   
   156  150  163 1   
   157  152  153 1   
   158  152  159 1   
   159  152  160 1   
   160  153  154 1   
   161  153  161 1   
   162  153  162 1   
   163  154  155 1   
   164  154  156 1   
   165  163  164 1   
   166  163  168 1   
   167  164  165 1   
   168  164  166 1   
   169  164  167 1   
   170  170  171 1   
   171  170  172 1   
@<TRIPOS>SUBSTRUCTURE
     1 MOL         1 TEMP              0 ****  ****    0 ROOT
