@<TRIPOS>MOLECULE
MOL
  172   171     1     0     0
SMALL
resp


@<TRIPOS>ATOM
      1 C1         -0.2330    1.7120    6.3000 c3        1 MOL     -0.391916
      2 C2         -0.4260    1.7170    4.8200 c         1 MOL      0.816109
      3 O1          0.3830    2.2890    4.0440 o         1 MOL     -0.611566
      4 H1         -0.9900    2.3410    6.7670 hc        1 MOL      0.087852
      5 H2         -0.3270    0.6920    6.6750 hc        1 MOL      0.087852
      6 H3          0.7580    2.0980    6.5390 hc        1 MOL      0.087852
      7 N1         -1.5290    1.1010    4.4440 n         1 MOL     -0.663405
      8 C3         -2.1550    1.3900    3.1300 c3        1 MOL      0.225869
      9 C4         -2.4950    2.9120    2.8800 c         1 MOL      0.535979
     10 O2         -3.0030    3.5850    3.7800 o         1 MOL     -0.594370
     11 C5         -3.3410    0.4370    2.9800 c3        1 MOL     -0.235839
     12 C6         -4.0780    0.7270    1.6310 c         1 MOL      0.738634
     13 O3         -3.3810    1.0660    0.6270 o         1 MOL     -0.665596
     14 O4         -5.2730    0.4250    1.6050 o         1 MOL     -0.665596
     15 H4         -2.1530    0.7330    5.1400 hn        1 MOL      0.326852
     16 H5         -1.4260    1.1510    2.3570 h1        1 MOL      0.001377
     17 H6         -4.0510    0.7090    3.7670 hc        1 MOL      0.042900
     18 H7         -3.1430   -0.6350    3.0330 hc        1 MOL      0.042900
     19 N2         -2.2950    3.4030    1.6590 n         1 MOL     -0.306013
     20 C7         -2.3680    4.8120    1.3880 c3        1 MOL      0.123986
     21 C8         -3.0070    5.1540   -0.0090 c         1 MOL      0.314227
     22 O5         -3.4110    6.3330   -0.2510 o         1 MOL     -0.546505
     23 C9         -0.9340    5.3650    1.5570 c3        1 MOL     -0.219145
     24 H8         -1.8040    2.8310    0.9880 hn        1 MOL      0.188873
     25 H9         -2.9620    5.3050    2.1580 h1        1 MOL      0.069502
     26 H10        -0.8710    6.3700    1.9750 hc        1 MOL      0.065776
     27 H11        -0.3570    4.7580    2.2540 hc        1 MOL      0.065776
     28 H12        -0.3710    5.2850    0.6360 hc        1 MOL      0.065776
     29 N3         -3.2020    4.1600   -0.9540 n         1 MOL      0.015673
     30 C10        -4.2130    4.3210   -2.0470 c3        1 MOL     -0.161925
     31 C11        -5.5530    3.6970   -1.8150 c         1 MOL      0.551736
     32 O6         -6.5190    3.9770   -2.4650 o         1 MOL     -0.563800
     33 C12        -3.6480    3.8060   -3.4280 c3        1 MOL     -0.025881
     34 C13        -3.0120    2.4100   -3.4020 c         1 MOL      0.652330
     35 O7         -3.3660    1.5930   -2.4640 o         1 MOL     -0.682519
     36 O8         -2.1170    2.0390   -4.2280 o         1 MOL     -0.682519
     37 H13        -2.9070    3.2370   -0.6580 hn        1 MOL     -0.039095
     38 H14        -4.4050    5.3810   -2.2390 h1        1 MOL      0.114898
     39 H15        -2.8040    4.3950   -3.7900 hc        1 MOL      0.005866
     40 H16        -4.3560    3.8460   -4.2660 hc        1 MOL      0.005866
     41 N4         -5.7130    2.8760   -0.7530 n         1 MOL     -0.199192
     42 C14        -7.0380    2.4400   -0.3780 c3        1 MOL     -0.270511
     43 C15        -7.4600    1.1010   -0.9880 c         1 MOL      0.671460
     44 O9         -8.5930    0.6950   -0.9330 o         1 MOL     -0.610381
     45 H17        -4.9540    2.5550   -0.1610 hn        1 MOL      0.196925
     46 H18        -7.7700    3.2090   -0.6370 h1        1 MOL      0.112074
     47 H19        -7.1130    2.2120    0.6900 h1        1 MOL      0.112074
     48 N5         -6.5350    0.3220   -1.6850 n         1 MOL     -0.362660
     49 C16        -6.8240   -1.0290   -2.1320 c3        1 MOL      0.028891
     50 C17        -6.7480   -2.1620   -1.1060 c         1 MOL      0.384118
     51 O10        -7.0600   -3.3220   -1.3470 o         1 MOL     -0.548057
     52 C18        -5.9210   -1.3760   -3.3960 c3        1 MOL     -0.363694
     53 C19        -4.6300   -1.9660   -2.9620 c         1 MOL      0.749610
     54 N6         -4.2690   -3.1620   -3.2870 n         1 MOL     -0.767321
     55 O11        -3.8860   -1.3410   -2.2220 o         1 MOL     -0.682704
     56 H20        -5.5650    0.6110   -1.6420 hn        1 MOL      0.170755
     57 H21        -7.8620   -1.0500   -2.4500 h1        1 MOL      0.129941
     58 H22        -5.7490   -0.4860   -4.0220 hc        1 MOL      0.120694
     59 H23        -6.4990   -2.0700   -4.0010 hc        1 MOL      0.120694
     60 H24        -4.8530   -3.8310   -3.7640 hn        1 MOL      0.354178
     61 H25        -3.3450   -3.4060   -2.9430 hn        1 MOL      0.354178
     62 N7         -6.5290   -1.8150    0.1890 n         1 MOL     -0.162406
     63 C20        -6.5510   -2.7150    1.3540 c3        1 MOL     -0.060140
     64 C21        -5.3410   -3.6980    1.5100 c         1 MOL      0.462752
     65 O12        -5.4200   -4.5130    2.4810 o         1 MOL     -0.570428
     66 H26        -6.2350   -0.8590    0.3720 hn        1 MOL      0.201438
     67 H27        -7.5130   -3.1980    1.5040 h1        1 MOL      0.072972
     68 H28        -6.5190   -2.0540    2.2160 h1        1 MOL      0.072972
     69 N8         -4.2390   -3.5340    0.8200 n         1 MOL     -0.297500
     70 C22        -2.9320   -4.2250    1.0630 c3        1 MOL      0.001341
     71 C23        -1.8600   -3.1710    0.8400 c         1 MOL      0.795450
     72 O13        -2.1760   -2.0220    0.4140 o         1 MOL     -0.727396
     73 C24        -2.6120   -5.3680    0.0820 c3        1 MOL      0.298942
     74 C25        -3.7570   -6.4030    0.2830 c3        1 MOL     -0.534389
     75 O14        -2.5790   -5.0200   -1.2480 oh        1 MOL     -0.636051
     76 H29        -4.1280   -2.6260    0.3710 hn        1 MOL      0.301410
     77 H30        -2.8440   -4.6560    2.0590 h1        1 MOL      0.065631
     78 H31        -1.6930   -5.8550    0.4020 h1        1 MOL      0.027166
     79 H32        -2.8080   -5.7580   -1.8150 ho        1 MOL      0.434360
     80 H33        -3.4610   -7.2500   -0.3350 hc        1 MOL      0.137102
     81 H34        -3.7860   -6.6100    1.3590 hc        1 MOL      0.137102
     82 H35        -4.7810   -6.0650    0.1500 hc        1 MOL      0.137102
     83 N9         -0.6640   -3.4770    1.3930 n         1 MOL     -0.602834
     84 C26         0.4530   -2.6220    1.4820 c3        1 MOL     -0.047191
     85 C27         1.4270   -2.9150    0.3930 c         1 MOL      0.537312
     86 O15         1.7610   -4.0540    0.1050 o         1 MOL     -0.611307
     87 C28         1.1510   -2.8950    2.8830 c3        1 MOL      0.258114
     88 C29         0.2800   -2.5820    4.1100 c3        1 MOL      0.155924
     89 C30         2.5250   -2.2070    2.9740 c3        1 MOL     -0.249376
     90 C31         0.5210   -3.3770    5.3880 c3        1 MOL     -0.214625
     91 H36        -0.5280   -4.4000    1.7590 hn        1 MOL      0.272260
     92 H37         0.2320   -1.5500    1.5160 h1        1 MOL      0.164822
     93 H38         1.3790   -3.9430    3.1010 hc        1 MOL     -0.036335
     94 H39        -0.7630   -2.8490    3.9260 hc        1 MOL     -0.032235
     95 H40         0.1980   -1.4980    4.2340 hc        1 MOL     -0.032235
     96 H41         2.4110   -1.1200    2.9870 hc        1 MOL      0.037057
     97 H42         3.0920   -2.6260    3.7940 hc        1 MOL      0.037057
     98 H43         3.1340   -2.4740    2.1110 hc        1 MOL      0.037057
     99 H44         0.0270   -2.8350    6.1920 hc        1 MOL      0.037115
    100 H45         0.1920   -4.4220    5.3650 hc        1 MOL      0.037115
    101 H46         1.5890   -3.3980    5.6220 hc        1 MOL      0.037115
    102 N10         1.8920   -1.8790   -0.3060 n         1 MOL     -0.017836
    103 C32         2.9120   -1.8860   -1.3350 c3        1 MOL      0.125758
    104 C33         4.3270   -1.6650   -0.7520 c         1 MOL      0.398872
    105 O16         4.5050   -1.0820    0.3290 o         1 MOL     -0.335330
    106 C34         2.6550   -0.8820   -2.4220 c3        1 MOL     -0.442366
    107 C35         1.1990   -0.8530   -3.0470 c         1 MOL      0.874335
    108 O17         0.8900   -1.7710   -3.7730 o         1 MOL     -0.706372
    109 O18         0.3500   -0.0570   -2.7030 o         1 MOL     -0.706372
    110 H47         1.6640   -0.9520    0.0330 hn        1 MOL     -0.210951
    111 H48         2.8740   -2.8660   -1.8140 h1        1 MOL      0.050787
    112 H49         3.4110   -1.0970   -3.1740 hc        1 MOL      0.092877
    113 H50         2.9250    0.0980   -2.0140 hc        1 MOL      0.092877
    114 N11         5.3880   -1.9420   -1.4860 n         1 MOL     -0.655196
    115 C36         6.7240   -1.4720   -1.0900 c3        1 MOL      0.381817
    116 C37         6.9370    0.0380   -0.8900 c         1 MOL      0.315352
    117 O19         7.4400    0.4220    0.2180 o         1 MOL     -0.465071
    118 C38         7.6730   -1.9900   -2.1010 c3        1 MOL      0.003941
    119 C39         9.1090   -1.6350   -1.7720 ca        1 MOL     -0.062235
    120 C40         9.5950   -1.9120   -0.4100 ca        1 MOL     -0.114350
    121 C41         9.8450   -0.7830   -2.5780 ca        1 MOL     -0.114350
    122 C42        10.8550   -1.3880   -0.0530 ca        1 MOL     -0.132307
    123 C43        11.1140   -0.2330   -2.1880 ca        1 MOL     -0.132307
    124 C44        11.5760   -0.6090   -0.9170 ca        1 MOL     -0.087002
    125 H51         5.2040   -2.3390   -2.3980 hn        1 MOL      0.340543
    126 H52         6.8770   -2.0270   -0.1620 h1        1 MOL      0.074875
    127 H53         7.4140   -1.6590   -3.1020 hc        1 MOL      0.003897
    128 H54         7.5200   -3.0750   -2.1150 hc        1 MOL      0.003897
    129 H55         8.9720   -2.3980    0.3210 ha        1 MOL      0.099389
    130 H56         9.4630   -0.5540   -3.5670 ha        1 MOL      0.099389
    131 H57        11.1710   -1.5140    0.9670 ha        1 MOL      0.121337
    132 H58        11.6510    0.4150   -2.8560 ha        1 MOL      0.121337
    133 H59        12.4950   -0.2140   -0.5140 ha        1 MOL      0.092582
    134 N12         6.4490    0.9390   -1.7350 n         1 MOL     -0.016151
    135 C45         6.5170    2.3690   -1.3600 c3        1 MOL      0.015212
    136 C46         5.7440    2.7490   -0.0460 c         1 MOL      0.291516
    137 O20         6.2500    3.4760    0.8530 o         1 MOL     -0.502422
    138 C47         5.9650    3.1530   -2.6350 c3        1 MOL     -0.021325
    139 C48         5.2690    2.1040   -3.4290 c3        1 MOL     -0.059814
    140 C49         6.1180    0.8430   -3.1450 c3        1 MOL      0.036241
    141 H60         7.5590    2.6840   -1.3030 h1        1 MOL      0.052568
    142 H61         5.2350    3.8650   -2.2240 hc        1 MOL      0.028001
    143 H62         6.7070    3.6830   -3.2240 hc        1 MOL      0.028001
    144 H63         4.2680    1.9170   -3.0400 hc        1 MOL      0.045114
    145 H64         5.2210    2.3520   -4.4970 hc        1 MOL      0.045114
    146 H65         5.6520   -0.1230   -3.3460 h1        1 MOL     -0.000992
    147 H66         7.0680    0.9090   -3.6820 h1        1 MOL     -0.000992
    148 N13         4.6390    2.0670    0.2750 n         1 MOL     -0.095218
    149 C50         3.9720    2.2170    1.5890 c3        1 MOL     -0.029680
    150 C51         4.6400    1.4800    2.7790 c         1 MOL      0.419996
    151 O21         4.7060    2.0320    3.8600 o         1 MOL     -0.551654
    152 C52         2.5710    1.6240    1.4420 c3        1 MOL      0.110555
    153 C53         1.6060    2.4330    0.4960 c3        1 MOL      0.121602
    154 C54         0.3700    1.6550    0.0720 c         1 MOL      0.599650
    155 O22         0.3400    0.4070    0.1760 o         1 MOL     -0.656675
    156 O23        -0.7140    2.2180   -0.3340 o         1 MOL     -0.656675
    157 H67         4.3720    1.3640   -0.4080 hn        1 MOL      0.132556
    158 H68         3.8330    3.2860    1.7500 h1        1 MOL      0.085124
    159 H69         2.0680    1.5460    2.4030 hc        1 MOL      0.013036
    160 H70         2.6760    0.6050    1.0800 hc        1 MOL      0.013036
    161 H71         2.1760    2.7130   -0.3910 hc        1 MOL     -0.045868
    162 H72         1.3370    3.3520    1.0070 hc        1 MOL     -0.045868
    163 N14         5.4000    0.3680    2.5460 n         1 MOL      0.104539
    164 C55         6.3530   -0.0990    3.5240 c3        1 MOL     -0.204727
    165 H73         7.0490   -0.7920    3.0500 h1        1 MOL      0.068188
    166 H74         6.9050    0.7500    3.9270 h1        1 MOL      0.068188
    167 H75         5.8270   -0.6080    4.3320 h1        1 MOL      0.068188
    168 H76         5.3540    0.0170    1.6070 hn        1 MOL     -0.100756
    169 Ca1        -1.8630   -0.0400   -1.1850 Ca        1 MOL      1.749202
    170 O24        -1.1650   -2.4260   -2.2770 oh        1 MOL     -0.731757
    171 H77        -1.0460   -3.3150   -1.9320 ho        1 MOL      0.345523
    172 H78        -0.3860   -2.2750   -2.8230 ho        1 MOL      0.345523
@<TRIPOS>BOND
     1    1    2 1   
     2    1    4 1   
     3    1    5 1   
     4    1    6 1   
     5    2    3 2   
     6    2    7 1   
     7    7    8 1   
     8    7   15 1   
     9    8    9 1   
    10    8   11 1   
    11    8   16 1   
    12    9   10 2   
    13    9   19 1   
    14   11   12 1   
    15   11   17 1   
    16   11   18 1   
    17   12   13 1   
    18   12   14 1   
    19   19   20 1   
    20   19   24 1   
    21   20   21 1   
    22   20   23 1   
    23   20   25 1   
    24   21   22 2   
    25   21   29 1   
    26   23   26 1   
    27   23   27 1   
    28   23   28 1   
    29   29   30 1   
    30   29   37 1   
    31   30   31 1   
    32   30   33 1   
    33   30   38 1   
    34   31   32 2   
    35   31   41 1   
    36   33   34 1   
    37   33   39 1   
    38   33   40 1   
    39   34   35 1   
    40   34   36 1   
    41   41   42 1   
    42   41   45 1   
    43   42   43 1   
    44   42   46 1   
    45   42   47 1   
    46   43   44 2   
    47   43   48 1   
    48   48   49 1   
    49   48   56 1   
    50   49   50 1   
    51   49   52 1   
    52   49   57 1   
    53   50   51 2   
    54   50   62 1   
    55   52   53 1   
    56   52   58 1   
    57   52   59 1   
    58   53   54 1   
    59   53   55 2   
    60   54   60 1   
    61   54   61 1   
    62   62   63 1   
    63   62   66 1   
    64   63   64 1   
    65   63   67 1   
    66   63   68 1   
    67   64   65 2   
    68   64   69 1   
    69   69   70 1   
    70   69   76 1   
    71   70   71 1   
    72   70   73 1   
    73   70   77 1   
    74   71   72 2   
    75   71   83 1   
    76   73   74 1   
    77   73   75 1   
    78   73   78 1   
    79   74   80 1   
    80   74   81 1   
    81   74   82 1   
    82   75   79 1   
    83   83   84 1   
    84   83   91 1   
    85   84   85 1   
    86   84   87 1   
    87   84   92 1   
    88   85   86 2   
    89   85  102 1   
    90   87   88 1   
    91   87   89 1   
    92   87   93 1   
    93   88   90 1   
    94   88   94 1   
    95   88   95 1   
    96   89   96 1   
    97   89   97 1   
    98   89   98 1   
    99   90   99 1   
   100   90  100 1   
   101   90  101 1   
   102  102  103 1   
   103  102  110 1   
   104  103  104 1   
   105  103  106 1   
   106  103  111 1   
   107  104  105 2   
   108  104  114 1   
   109  106  107 1   
   110  106  112 1   
   111  106  113 1   
   112  107  108 1   
   113  107  109 1   
   114  114  115 1   
   115  114  125 1   
   116  115  116 1   
   117  115  118 1   
   118  115  126 1   
   119  116  117 2   
   120  116  134 1   
   121  118  119 1   
   122  118  127 1   
   123  118  128 1   
   124  119  120 ar  
   125  119  121 ar  
   126  120  122 ar  
   127  120  129 1   
   128  121  123 ar  
   129  121  130 1   
   130  122  124 ar  
   131  122  131 1   
   132  123  124 ar  
   133  123  132 1   
   134  124  133 1   
   135  134  135 1   
   136  134  140 1   
   137  135  136 1   
   138  135  138 1   
   139  135  141 1   
   140  136  137 2   
   141  136  148 1   
   142  138  139 1   
   143  138  142 1   
   144  138  143 1   
   145  139  140 1   
   146  139  144 1   
   147  139  145 1   
   148  140  146 1   
   149  140  147 1   
   150  148  149 1   
   151  148  157 1   
   152  149  150 1   
   153  149  152 1   
   154  149  158 1   
   155  150  151 2   
   156  150  163 1   
   157  152  153 1   
   158  152  159 1   
   159  152  160 1   
   160  153  154 1   
   161  153  161 1   
   162  153  162 1   
   163  154  155 1   
   164  154  156 1   
   165  163  164 1   
   166  163  168 1   
   167  164  165 1   
   168  164  166 1   
   169  164  167 1   
   170  170  171 1   
   171  170  172 1   
@<TRIPOS>SUBSTRUCTURE
     1 MOL         1 TEMP              0 ****  ****    0 ROOT
