@<TRIPOS>MOLECULE
MOL
  175   173     1     0     0
SMALL
resp


@<TRIPOS>ATOM
      1 C1          0.9260    4.3520    4.9500 c3        1 MOL     -0.449267
      2 C2          0.1880    4.1260    3.6450 c         1 MOL      0.771404
      3 O1          0.7500    4.3670    2.6060 o         1 MOL     -0.549280
      4 H1          1.7590    3.6530    5.0220 hc        1 MOL      0.112364
      5 H2          1.3060    5.3730    4.9800 hc        1 MOL      0.112364
      6 H3          0.2450    4.1920    5.7860 hc        1 MOL      0.112364
      7 N1         -1.1900    3.8800    3.5930 n         1 MOL     -0.720007
      8 C3         -2.0270    3.5990    2.4510 c3        1 MOL      0.134897
      9 C4         -2.2670    4.7800    1.4700 c         1 MOL      0.690994
     10 O2         -2.8530    5.7330    1.8840 o         1 MOL     -0.587333
     11 C5         -3.4250    2.9860    2.9250 c3        1 MOL     -0.313983
     12 C6         -4.1460    2.3670    1.7770 c         1 MOL      0.853285
     13 O3         -5.3510    2.0030    1.9600 o         1 MOL     -0.705920
     14 O4         -3.5810    2.1410    0.6850 o         1 MOL     -0.705920
     15 H4         -1.7240    4.1460    4.4130 hn        1 MOL      0.331605
     16 H5         -1.4520    2.8540    1.9020 h1        1 MOL      0.123809
     17 H6         -4.0010    3.7190    3.4790 hc        1 MOL      0.070369
     18 H7         -3.2920    2.1650    3.6400 hc        1 MOL      0.070369
     19 N2         -2.1230    4.5280    0.1410 n         1 MOL     -0.798317
     20 C7         -2.5600    5.4640   -0.8790 c3        1 MOL      0.694012
     21 C8         -3.5500    4.9210   -1.9090 c         1 MOL      0.213089
     22 O5         -3.7000    5.5820   -2.9250 o         1 MOL     -0.556660
     23 C9         -1.2710    5.9890   -1.5750 c3        1 MOL     -0.507101
     24 H8         -1.9130    3.5910   -0.1860 hn        1 MOL      0.381310
     25 H9         -3.0430    6.3030   -0.3720 h1        1 MOL     -0.064627
     26 H10        -0.4470    6.1940   -0.8960 hc        1 MOL      0.115392
     27 H11        -0.9820    5.1580   -2.2210 hc        1 MOL      0.115392
     28 H12        -1.5230    6.9580   -2.0080 hc        1 MOL      0.115392
     29 N3         -4.0940    3.7600   -1.7030 n         1 MOL     -0.117094
     30 C10        -5.0920    3.1950   -2.6770 c3        1 MOL      0.045628
     31 C11        -6.3520    2.3680   -2.0930 c         1 MOL      0.281512
     32 O6         -7.3170    2.1100   -2.8700 o         1 MOL     -0.527762
     33 C12        -4.3470    2.2740   -3.6400 c3        1 MOL     -0.302724
     34 C13        -3.5680    1.1360   -2.9320 c         1 MOL      0.670332
     35 O7         -2.5510    0.6460   -3.4210 o         1 MOL     -0.650291
     36 O8         -3.9110    0.7110   -1.7750 o         1 MOL     -0.650291
     37 H13        -3.9840    3.2480   -0.8400 hn        1 MOL      0.095500
     38 H14        -5.5750    4.0320   -3.1720 h1        1 MOL      0.106012
     39 H15        -3.6210    2.8720   -4.1810 hc        1 MOL      0.090546
     40 H16        -5.0740    1.7960   -4.3060 hc        1 MOL      0.090546
     41 N4         -6.4570    1.9760   -0.8320 n         1 MOL     -0.098550
     42 C14        -7.4370    1.1230   -0.3380 c3        1 MOL     -0.359355
     43 C15        -7.4310   -0.2920   -0.8660 c         1 MOL      0.623042
     44 O9         -8.4000   -0.9790   -0.4870 o         1 MOL     -0.630276
     45 H17        -5.6640    2.0820   -0.2140 hn        1 MOL      0.156060
     46 H18        -8.4460    1.4380   -0.6380 h1        1 MOL      0.149292
     47 H19        -7.3480    1.0380    0.7470 h1        1 MOL      0.149292
     48 N5         -6.3740   -0.7660   -1.5750 n         1 MOL     -0.490103
     49 C16        -6.2330   -2.1820   -2.0050 c3        1 MOL     -0.013023
     50 C17        -6.1270   -3.2580   -0.8120 c         1 MOL      0.434603
     51 O10        -5.8780   -4.4340   -1.1210 o         1 MOL     -0.555360
     52 C18        -5.0750   -2.1850   -3.0260 c3        1 MOL      0.042438
     53 C19        -3.7470   -2.3630   -2.4100 c         1 MOL      0.417701
     54 N6         -2.7860   -2.5810   -3.2060 n         1 MOL     -0.503312
     55 O11        -3.5380   -2.2800   -1.2220 o         1 MOL     -0.527897
     56 H20        -5.6680   -0.1320   -1.9140 hn        1 MOL      0.403090
     57 H21        -7.1020   -2.4570   -2.6090 h1        1 MOL      0.078609
     58 H22        -5.1300   -1.2710   -3.6080 hc        1 MOL      0.004704
     59 H23        -5.2520   -2.9910   -3.7380 hc        1 MOL      0.004704
     60 H24        -2.9620   -2.7140   -4.1960 hn        1 MOL      0.300763
     61 H25        -1.8310   -2.6410   -2.8770 hn        1 MOL      0.300763
     62 N7         -6.2260   -2.7870    0.4280 n         1 MOL     -0.171254
     63 C20        -6.3780   -3.7110    1.5610 c3        1 MOL     -0.379138
     64 C21        -5.0050   -4.2070    2.0690 c         1 MOL      0.495265
     65 O12        -4.9240   -4.6570    3.2250 o         1 MOL     -0.582162
     66 H26        -6.0690   -1.8100    0.6340 hn        1 MOL      0.262223
     67 H27        -6.8870   -4.6110    1.2170 h1        1 MOL      0.159740
     68 H28        -6.8980   -3.1610    2.3410 h1        1 MOL      0.159740
     69 N8         -3.9690   -4.0600    1.2790 n         1 MOL     -0.092878
     70 C22        -2.5900   -4.5490    1.5200 c3        1 MOL     -0.291293
     71 C23        -1.5570   -3.3640    1.7520 c         1 MOL      0.713817
     72 O13        -1.8700   -2.2810    1.2340 o         1 MOL     -0.682913
     73 C24        -2.0090   -5.4660    0.3850 c3        1 MOL      0.489107
     74 C25        -2.7880   -6.6790   -0.0200 c3        1 MOL     -0.155605
     75 O14        -1.9020   -4.5980   -0.7650 oh        1 MOL     -0.619456
     76 H29        -4.0680   -3.7550    0.3200 hn        1 MOL      0.316562
     77 H30        -2.5760   -5.1320    2.4360 h1        1 MOL      0.067183
     78 H31        -0.9750   -5.7510    0.5850 h1        1 MOL     -0.019476
     79 H32        -2.3950   -3.7790   -0.6630 ho        1 MOL      0.286791
     80 H33        -2.4220   -7.1180   -0.9370 hc        1 MOL      0.019578
     81 H34        -2.6040   -7.4230    0.7640 hc        1 MOL      0.019578
     82 H35        -3.8610   -6.4870   -0.0700 hc        1 MOL      0.019578
     83 N9         -0.4350   -3.5810    2.4400 n         1 MOL     -0.531546
     84 C26         0.8040   -2.7460    2.3130 c3        1 MOL      0.037610
     85 C27         1.3830   -2.9430    0.8990 c         1 MOL      0.469949
     86 O15         1.4680   -4.1300    0.4730 o         1 MOL     -0.562569
     87 C28         1.8780   -2.8340    3.4580 c3        1 MOL      0.146391
     88 C29         1.1290   -2.0130    4.5290 c3        1 MOL      0.077152
     89 C30         3.2820   -2.3630    3.1790 c3        1 MOL     -0.163295
     90 C31         1.8820   -1.6390    5.8040 c3        1 MOL     -0.190056
     91 H36        -0.2160   -4.5140    2.7670 hn        1 MOL      0.286257
     92 H37         0.4910   -1.7240    2.1040 h1        1 MOL      0.012598
     93 H38         1.9430   -3.8640    3.8130 hc        1 MOL     -0.010402
     94 H39         0.2050   -2.5560    4.7720 hc        1 MOL     -0.005329
     95 H40         0.8410   -1.0640    4.0910 hc        1 MOL     -0.005329
     96 H41         3.6820   -3.1390    2.5190 hc        1 MOL      0.025682
     97 H42         3.3010   -1.4410    2.6030 hc        1 MOL      0.025682
     98 H43         3.9020   -2.2600    4.0710 hc        1 MOL      0.025682
     99 H44         2.1520   -2.4940    6.4170 hc        1 MOL      0.036122
    100 H45         2.7200   -0.9860    5.5520 hc        1 MOL      0.036122
    101 H46         1.2070   -0.9910    6.3800 hc        1 MOL      0.036122
    102 N10         1.8640   -1.9070    0.2440 n         1 MOL     -0.301687
    103 C32         2.6680   -2.0090   -1.0190 c3        1 MOL      0.142783
    104 C33         4.1240   -1.5510   -0.8100 c         1 MOL      0.521637
    105 O16         4.3940   -0.8630    0.2690 o         1 MOL     -0.454061
    106 C34         1.9460   -1.3560   -2.2300 c3        1 MOL     -0.410071
    107 C35         0.4560   -1.5960   -2.4680 c         1 MOL      0.813241
    108 O17         0.0670   -2.1220   -3.5370 o         1 MOL     -0.681643
    109 O18        -0.3760   -1.0130   -1.7730 o         1 MOL     -0.681643
    110 H47         1.7450   -1.0100    0.7050 hn        1 MOL      0.258365
    111 H48         2.7900   -3.0890   -1.1330 h1        1 MOL      0.047133
    112 H49         2.3950   -1.6770   -3.1690 hc        1 MOL      0.089780
    113 H50         2.0240   -0.2890   -2.0080 hc        1 MOL      0.089780
    114 N11         5.0830   -1.8270   -1.6870 n         1 MOL     -0.676846
    115 C36         6.5470   -1.6920   -1.3960 c3        1 MOL      0.284688
    116 C37         6.8150   -0.1930   -1.1360 c         1 MOL      0.306644
    117 O19         7.4040    0.0650   -0.0950 o         1 MOL     -0.457464
    118 C38         7.5070   -2.2670   -2.4230 c3        1 MOL     -0.105351
    119 C39         8.9130   -2.0980   -2.0550 ca        1 MOL     -0.026322
    120 C40         9.6050   -1.1180   -2.7310 ca        1 MOL     -0.077413
    121 C41         9.4690   -2.7320   -0.9280 ca        1 MOL     -0.077413
    122 C42        10.9080   -0.7880   -2.3330 ca        1 MOL     -0.171309
    123 C43        10.7220   -2.4060   -0.5030 ca        1 MOL     -0.171309
    124 C44        11.4550   -1.3820   -1.1710 ca        1 MOL     -0.046147
    125 H51         4.8310   -2.3400   -2.5200 hn        1 MOL      0.347333
    126 H52         6.7870   -2.2580   -0.5070 h1        1 MOL      0.083955
    127 H53         7.3080   -1.7320   -3.3500 hc        1 MOL      0.042779
    128 H54         7.2680   -3.2750   -2.7600 hc        1 MOL      0.042779
    129 H55         9.1830   -0.6330   -3.6000 ha        1 MOL      0.100058
    130 H56         8.8270   -3.3780   -0.3620 ha        1 MOL      0.100058
    131 H57        11.4510   -0.0600   -2.9250 ha        1 MOL      0.124086
    132 H58        11.1110   -2.8090    0.4190 ha        1 MOL      0.124086
    133 H59        12.4500   -1.1130   -0.8580 ha        1 MOL      0.089636
    134 N12         6.2300    0.8030   -1.8180 n         1 MOL     -0.067365
    135 C45         6.5610    2.2170   -1.5350 c3        1 MOL      0.034934
    136 C46         5.8270    2.7210   -0.3100 c         1 MOL      0.241054
    137 O20         6.3090    3.6360    0.4000 o         1 MOL     -0.487003
    138 C47         6.2190    3.0010   -2.7970 c3        1 MOL     -0.073973
    139 C48         5.8160    1.9970   -3.8980 c3        1 MOL     -0.071206
    140 C49         5.4680    0.7530   -3.0660 c3        1 MOL      0.033862
    141 H60         7.6410    2.3000   -1.4040 h1        1 MOL      0.081703
    142 H61         5.4920    3.7960   -2.6690 hc        1 MOL      0.047328
    143 H62         7.1550    3.4550   -3.1340 hc        1 MOL      0.047328
    144 H63         4.9340    2.2470   -4.4820 hc        1 MOL      0.040806
    145 H64         6.6310    1.8680   -4.6120 hc        1 MOL      0.040806
    146 H65         4.3940    0.5880   -2.9010 h1        1 MOL      0.021350
    147 H66         5.8240   -0.0780   -3.6700 h1        1 MOL      0.021350
    148 N13         4.6840    2.1680    0.1040 n         1 MOL     -0.076227
    149 C50         4.1290    2.3980    1.4040 c3        1 MOL     -0.135703
    150 C51         5.0720    1.8410    2.4490 c         1 MOL      0.463739
    151 O21         5.2790    2.5240    3.4420 o         1 MOL     -0.562677
    152 C52         2.7340    1.7510    1.4990 c3        1 MOL     -0.174393
    153 C53         1.8270    2.2680    0.3220 c3        1 MOL      0.039224
    154 C54         0.4360    1.6470    0.3690 c         1 MOL      0.635157
    155 O22        -0.4830    1.9660   -0.4240 o         1 MOL     -0.736281
    156 O23         0.1430    0.7010    1.1000 o         1 MOL     -0.736281
    157 H67         4.1740    1.5530   -0.5160 hn        1 MOL      0.214696
    158 H68         3.9880    3.4690    1.5620 h1        1 MOL      0.124781
    159 H69         2.3070    1.9130    2.4920 hc        1 MOL      0.088075
    160 H70         2.8900    0.6930    1.3050 hc        1 MOL      0.088075
    161 H71         2.3300    1.9910   -0.6040 hc        1 MOL      0.022862
    162 H72         1.6850    3.3390    0.2130 hc        1 MOL      0.022862
    163 N14         5.7850    0.7320    2.2190 n         1 MOL      0.050590
    164 C55         6.6450    0.1780    3.2600 c3        1 MOL     -0.301043
    165 H73         7.1290   -0.7250    2.8890 h1        1 MOL      0.100049
    166 H74         7.4050    0.9110    3.5320 h1        1 MOL      0.100049
    167 H75         6.0440   -0.0650    4.1370 h1        1 MOL      0.100049
    168 H76         5.7270    0.3620    1.2800 hn        1 MOL      0.001861
    169 Ca1        -2.1780   -0.0520   -0.1850 Ca        1 MOL      1.724423
    170 O24        -1.7500    0.1610    2.7500 oh        1 MOL     -0.756175
    171 H77        -1.6600    0.5700    3.6110 ho        1 MOL      0.359105
    172 H78        -0.9140    0.3370    2.3150 ho        1 MOL      0.359105
    173 O25        -4.5630   -0.3880    1.1410 oh        1 MOL     -0.756175
    174 H79        -4.6760   -0.8910    1.9470 ho        1 MOL      0.359105
    175 H80        -4.8720    0.4960    1.3650 ho        1 MOL      0.359105
@<TRIPOS>BOND
     1    1    2 1   
     2    1    4 1   
     3    1    5 1   
     4    1    6 1   
     5    2    3 2   
     6    2    7 1   
     7    7    8 1   
     8    7   15 1   
     9    8    9 1   
    10    8   11 1   
    11    8   16 1   
    12    9   10 2   
    13    9   19 1   
    14   11   12 1   
    15   11   17 1   
    16   11   18 1   
    17   12   13 1   
    18   12   14 1   
    19   19   20 1   
    20   19   24 1   
    21   20   21 1   
    22   20   23 1   
    23   20   25 1   
    24   21   22 2   
    25   21   29 1   
    26   23   26 1   
    27   23   27 1   
    28   23   28 1   
    29   29   30 1   
    30   29   37 1   
    31   30   31 1   
    32   30   33 1   
    33   30   38 1   
    34   31   32 2   
    35   31   41 1   
    36   33   34 1   
    37   33   39 1   
    38   33   40 1   
    39   34   35 1   
    40   34   36 1   
    41   41   42 1   
    42   41   45 1   
    43   42   43 1   
    44   42   46 1   
    45   42   47 1   
    46   43   44 2   
    47   43   48 1   
    48   48   49 1   
    49   48   56 1   
    50   49   50 1   
    51   49   52 1   
    52   49   57 1   
    53   50   51 2   
    54   50   62 1   
    55   52   53 1   
    56   52   58 1   
    57   52   59 1   
    58   53   54 1   
    59   53   55 2   
    60   54   60 1   
    61   54   61 1   
    62   62   63 1   
    63   62   66 1   
    64   63   64 1   
    65   63   67 1   
    66   63   68 1   
    67   64   65 2   
    68   64   69 1   
    69   69   70 1   
    70   69   76 1   
    71   70   71 1   
    72   70   73 1   
    73   70   77 1   
    74   71   72 2   
    75   71   83 1   
    76   73   74 1   
    77   73   75 1   
    78   73   78 1   
    79   74   80 1   
    80   74   81 1   
    81   74   82 1   
    82   75   79 1   
    83   83   84 1   
    84   83   91 1   
    85   84   85 1   
    86   84   87 1   
    87   84   92 1   
    88   85   86 2   
    89   85  102 1   
    90   87   88 1   
    91   87   89 1   
    92   87   93 1   
    93   88   90 1   
    94   88   94 1   
    95   88   95 1   
    96   89   96 1   
    97   89   97 1   
    98   89   98 1   
    99   90   99 1   
   100   90  100 1   
   101   90  101 1   
   102  102  103 1   
   103  102  110 1   
   104  103  104 1   
   105  103  106 1   
   106  103  111 1   
   107  104  105 2   
   108  104  114 1   
   109  106  107 1   
   110  106  112 1   
   111  106  113 1   
   112  107  108 1   
   113  107  109 1   
   114  114  115 1   
   115  114  125 1   
   116  115  116 1   
   117  115  118 1   
   118  115  126 1   
   119  116  117 2   
   120  116  134 1   
   121  118  119 1   
   122  118  127 1   
   123  118  128 1   
   124  119  120 ar  
   125  119  121 ar  
   126  120  122 ar  
   127  120  129 1   
   128  121  123 ar  
   129  121  130 1   
   130  122  124 ar  
   131  122  131 1   
   132  123  124 ar  
   133  123  132 1   
   134  124  133 1   
   135  134  135 1   
   136  134  140 1   
   137  135  136 1   
   138  135  138 1   
   139  135  141 1   
   140  136  137 2   
   141  136  148 1   
   142  138  139 1   
   143  138  142 1   
   144  138  143 1   
   145  139  140 1   
   146  139  144 1   
   147  139  145 1   
   148  140  146 1   
   149  140  147 1   
   150  148  149 1   
   151  148  157 1   
   152  149  150 1   
   153  149  152 1   
   154  149  158 1   
   155  150  151 2   
   156  150  163 1   
   157  152  153 1   
   158  152  159 1   
   159  152  160 1   
   160  153  154 1   
   161  153  161 1   
   162  153  162 1   
   163  154  155 1   
   164  154  156 1   
   165  163  164 1   
   166  163  168 1   
   167  164  165 1   
   168  164  166 1   
   169  164  167 1   
   170  170  171 1   
   171  170  172 1   
   172  173  174 1   
   173  173  175 1   
@<TRIPOS>SUBSTRUCTURE
     1 MOL         1 TEMP              0 ****  ****    0 ROOT
