@<TRIPOS>MOLECULE
MOL
  179   176     1     0     0
SMALL
resp


@<TRIPOS>ATOM
      1 C1          1.3670    3.9480    4.1680 c3        1 MOL     -0.329146
      2 C2          0.4780    3.7530    2.9090 c         1 MOL      0.736067
      3 O1          0.7960    4.1350    1.7950 o         1 MOL     -0.604211
      4 H1          0.7530    3.8520    5.0630 hc        1 MOL      0.086735
      5 H2          2.1500    3.1900    4.1800 hc        1 MOL      0.086735
      6 H3          1.8200    4.9390    4.1440 hc        1 MOL      0.086735
      7 N1         -0.7450    3.2390    3.0600 n         1 MOL     -0.702937
      8 C3         -1.5580    2.6400    1.9760 c3        1 MOL      0.450017
      9 C4         -2.3760    3.6840    1.1870 c         1 MOL      0.271728
     10 O2         -3.6410    3.6230    1.1160 o         1 MOL     -0.471278
     11 C5         -2.3920    1.4760    2.4990 c3        1 MOL      0.029352
     12 C6         -3.2830    0.8180    1.3380 c         1 MOL      0.406374
     13 O3         -2.6070    0.4310    0.3400 o         1 MOL     -0.586121
     14 O4         -4.5550    0.8420    1.3520 o         1 MOL     -0.586121
     15 H4         -1.0700    2.9310    3.9650 hn        1 MOL      0.306634
     16 H5         -0.8720    2.1490    1.2840 h1        1 MOL     -0.049904
     17 H6         -3.0230    1.8480    3.2900 hc        1 MOL     -0.033734
     18 H7         -1.7350    0.7150    2.9210 hc        1 MOL     -0.033734
     19 N2         -1.7110    4.6700    0.6500 n         1 MOL     -0.244748
     20 C7         -2.3260    5.8710    0.0660 c3        1 MOL     -0.010224
     21 C8         -3.1710    5.5560   -1.1890 c         1 MOL      0.409078
     22 O5         -4.1660    6.2500   -1.3620 o         1 MOL     -0.534117
     23 C9         -1.1740    6.8750   -0.2590 c3        1 MOL     -0.086548
     24 C10        -0.5730    7.6130    1.0440 c3        1 MOL      0.017571
     25 C11        -1.5650    8.5800    1.7310 c3        1 MOL     -0.274418
     26 C12        -0.8460    9.3150    2.9010 c3        1 MOL      0.222497
     27 N3         -1.7030   10.4500    3.4320 n4        1 MOL     -0.549041
     28 H8         -0.7090    4.6140    0.7570 hn        1 MOL      0.275145
     29 H9         -3.0130    6.3330    0.7800 h1        1 MOL      0.089354
     30 H10        -1.5730    7.6300   -0.9370 hc        1 MOL      0.062299
     31 H11        -0.3650    6.4010   -0.8250 hc        1 MOL      0.062299
     32 H12         0.3250    8.1310    0.7100 hc        1 MOL      0.035650
     33 H13        -0.2680    6.8680    1.7800 hc        1 MOL      0.035650
     34 H14        -2.4450    8.0530    2.1120 hc        1 MOL      0.094365
     35 H15        -1.8780    9.3780    1.0610 hc        1 MOL      0.094365
     36 H16         0.1460    9.6950    2.6630 hx        1 MOL      0.050016
     37 H17        -0.5990    8.5310    3.6270 hx        1 MOL      0.050016
     38 H18        -2.0270   10.9360    2.6120 hn        1 MOL      0.375615
     39 H19        -2.4520   10.0250    3.9720 hn        1 MOL      0.375615
     40 H20        -1.2270   11.0730    4.0700 hn        1 MOL      0.375615
     41 N4         -2.7900    4.5640   -1.9600 n         1 MOL     -0.292448
     42 C13        -3.4950    4.0180   -3.1470 c3        1 MOL      0.031657
     43 C14        -4.8510    3.2530   -2.8530 c         1 MOL      0.393490
     44 O6         -5.7880    3.2830   -3.6740 o         1 MOL     -0.530691
     45 C15        -2.6190    2.9970   -3.9340 c3        1 MOL     -0.254624
     46 C16        -2.0810    1.8440   -3.0820 c         1 MOL      0.739285
     47 O7         -2.2780    0.5990   -3.2760 o         1 MOL     -0.748719
     48 O8         -1.3790    2.1310   -2.1300 o         1 MOL     -0.748719
     49 H21        -1.9900    4.0070   -1.6850 hn        1 MOL      0.230185
     50 H22        -3.6860    4.8110   -3.8750 h1        1 MOL      0.092637
     51 H23        -1.8490    3.5900   -4.4280 hc        1 MOL      0.082930
     52 H24        -3.2410    2.6560   -4.7670 hc        1 MOL      0.082930
     53 N5         -4.9500    2.6840   -1.6410 n         1 MOL      0.022642
     54 C17        -6.0880    2.1070   -1.0900 c3        1 MOL     -0.385849
     55 C18        -6.3220    0.6270   -1.3370 c         1 MOL      0.571739
     56 O9         -7.4890    0.2360   -1.1970 o         1 MOL     -0.581081
     57 H25        -4.0980    2.5410   -1.1330 hn        1 MOL      0.150903
     58 H26        -6.9220    2.6130   -1.5830 h1        1 MOL      0.162288
     59 H27        -6.1670    2.2820   -0.0160 h1        1 MOL      0.162288
     60 N6         -5.3620   -0.1910   -1.7380 n         1 MOL     -0.205193
     61 C19        -5.6130   -1.6540   -1.9710 c3        1 MOL     -0.139478
     62 C20        -5.5500   -2.5310   -0.6820 c         1 MOL      0.284723
     63 O10        -5.8060   -3.7520   -0.7810 o         1 MOL     -0.459437
     64 C21        -4.6930   -2.2430   -3.0450 c3        1 MOL     -0.131041
     65 C22        -3.2880   -2.4470   -2.7100 c         1 MOL      0.669847
     66 N7         -2.5270   -3.0370   -3.6400 n         1 MOL     -0.823731
     67 O11        -2.7890   -2.0170   -1.6590 o         1 MOL     -0.617451
     68 H28        -4.4720    0.2310   -1.9940 hn        1 MOL      0.145177
     69 H29        -6.6700   -1.7530   -2.2350 h1        1 MOL      0.143001
     70 H30        -4.7080   -1.4820   -3.8310 hc        1 MOL      0.082286
     71 H31        -5.1420   -3.1460   -3.4390 hc        1 MOL      0.082286
     72 H32        -2.9780   -3.4440   -4.4540 hn        1 MOL      0.367436
     73 H33        -1.6480   -3.3500   -3.2710 hn        1 MOL      0.367436
     74 N8         -5.2380   -1.9310    0.4710 n         1 MOL      0.067955
     75 C23        -5.3700   -2.5360    1.7700 c3        1 MOL     -0.415004
     76 C24        -4.1650   -3.3580    2.1260 c         1 MOL      0.749468
     77 O12        -4.1630   -4.1220    3.1360 o         1 MOL     -0.580561
     78 H34        -5.0670   -0.9320    0.4580 hn        1 MOL      0.174141
     79 H35        -6.3160   -3.0920    1.7860 h1        1 MOL      0.146526
     80 H36        -5.4010   -1.7330    2.5060 h1        1 MOL      0.146526
     81 N9         -3.0300   -3.1070    1.4070 n         1 MOL     -0.715048
     82 C25        -1.8380   -3.9270    1.5910 c3        1 MOL      0.146076
     83 C26        -0.6240   -2.9080    1.4760 c         1 MOL      0.655422
     84 O13        -0.6550   -1.9830    0.6820 o         1 MOL     -0.684057
     85 C27        -1.7810   -5.0740    0.6210 c3        1 MOL     -0.002169
     86 C28        -2.9640   -6.0560    0.7980 ca        1 MOL     -0.144624
     87 C29        -3.8640   -6.3480   -0.2850 ca        1 MOL     -0.017945
     88 C30        -3.1430   -6.7280    2.0670 ca        1 MOL     -0.017945
     89 C31        -4.9540   -7.2390   -0.0220 ca        1 MOL     -0.397374
     90 C32        -4.0770   -7.7220    2.2790 ca        1 MOL     -0.397374
     91 C33        -5.0420   -7.8950    1.2230 ca        1 MOL      0.481525
     92 O14        -6.0320   -8.8100    1.3280 oh        1 MOL     -0.519896
     93 H37        -3.0880   -2.4060    0.6860 hn        1 MOL      0.500400
     94 H38        -1.7720   -4.3870    2.5750 h1        1 MOL      0.039917
     95 H39        -0.8130   -5.5540    0.7670 hc        1 MOL      0.002910
     96 H40        -1.7690   -4.6500   -0.3790 hc        1 MOL      0.002910
     97 H41        -3.7330   -5.8160   -1.2050 ha        1 MOL      0.117424
     98 H42        -2.4950   -6.5170    2.9070 ha        1 MOL      0.117424
     99 H43        -5.7210   -7.4440   -0.7600 ha        1 MOL      0.180254
    100 H44        -4.2450   -8.2520    3.2060 ha        1 MOL      0.180254
    101 H45        -6.0610   -9.1260    2.2350 ho        1 MOL      0.362841
    102 N10         0.4560   -3.2100    2.2530 n         1 MOL     -0.696352
    103 C34         1.6510   -2.4070    2.0680 c3        1 MOL      0.388490
    104 C35         2.6990   -3.2320    1.2770 c         1 MOL      0.362947
    105 O15         3.0290   -4.2750    1.7610 o         1 MOL     -0.552368
    106 C36         2.2050   -1.8520    3.4810 c3        1 MOL      0.070465
    107 C37         1.0960   -1.3130    4.2790 c3        1 MOL      0.330410
    108 C38         3.4000   -0.9590    3.3690 c3        1 MOL     -0.111405
    109 C39         1.4940   -0.8860    5.7030 c3        1 MOL     -0.230902
    110 H46         0.4700   -4.0470    2.8210 hn        1 MOL      0.355072
    111 H47         1.4660   -1.5040    1.4810 h1        1 MOL     -0.016457
    112 H48         2.4970   -2.7620    4.0100 hc        1 MOL     -0.034132
    113 H49         0.3310   -2.0770    4.4000 hc        1 MOL     -0.084870
    114 H50         0.7050   -0.4520    3.7330 hc        1 MOL     -0.084870
    115 H51         3.1360   -0.0470    2.8290 hc        1 MOL      0.005880
    116 H52         3.8860   -0.7470    4.3200 hc        1 MOL      0.005880
    117 H53         4.1960   -1.4350    2.8030 hc        1 MOL      0.005880
    118 H54         2.2800   -0.1410    5.6430 hc        1 MOL      0.042248
    119 H55         0.6130   -0.4340    6.1680 hc        1 MOL      0.042248
    120 H56         1.7040   -1.7630    6.3020 hc        1 MOL      0.042248
    121 N11         3.2540   -2.6480    0.2030 n         1 MOL     -0.032387
    122 C40         4.3550   -3.1820   -0.5980 c3        1 MOL     -0.036384
    123 C41         5.6870   -2.5790   -0.0430 c         1 MOL      0.389550
    124 O16         5.7520   -1.4080    0.4740 o         1 MOL     -0.366430
    125 C42         4.0260   -2.8030   -2.0630 c3        1 MOL     -0.085944
    126 O17         3.9570   -1.4040   -2.2330 oh        1 MOL     -0.538982
    127 H57         2.9420   -1.7280   -0.0430 hn        1 MOL      0.027432
    128 H58         4.4460   -4.2700   -0.5530 h1        1 MOL      0.061279
    129 H59         3.0320   -3.2440   -2.1870 h1        1 MOL      0.099017
    130 H60         4.7200   -3.3270   -2.7210 h1        1 MOL      0.099017
    131 H61         3.1580   -1.0870   -1.8000 ho        1 MOL      0.318984
    132 N12         6.7530   -3.3480   -0.0850 n         1 MOL     -0.429300
    133 C43         8.0900   -2.7700    0.0750 c3        1 MOL      0.186803
    134 C44         8.4490   -1.6590   -0.8820 c         1 MOL      0.443638
    135 O18         9.2540   -0.8110   -0.4990 o         1 MOL     -0.501011
    136 C45         9.1490   -3.8710    0.1340 c3        1 MOL     -0.230119
    137 H62         6.7820   -4.2160   -0.6040 hn        1 MOL      0.299494
    138 H63         8.1800   -2.3230    1.0640 h1        1 MOL      0.083168
    139 H64        10.1190   -3.5530    0.5170 hc        1 MOL      0.070136
    140 H65         8.6630   -4.5050    0.8770 hc        1 MOL      0.070136
    141 H66         9.1910   -4.4610   -0.7760 hc        1 MOL      0.070136
    142 N13         7.7560   -1.5370   -2.0390 n         1 MOL     -0.458659
    143 C46         7.8130   -0.3350   -2.9210 c3        1 MOL      0.247794
    144 C47         7.2650    0.9790   -2.2650 c         1 MOL      0.326745
    145 O19         7.9160    2.0170   -2.3520 o         1 MOL     -0.497382
    146 C48         7.0880   -0.7240   -4.2090 c3        1 MOL     -0.392626
    147 H67         7.1030   -2.2520   -2.3170 hn        1 MOL      0.253075
    148 H68         8.8760   -0.1220   -3.0510 h1        1 MOL      0.065103
    149 H69         6.6700    0.1880   -4.6260 hc        1 MOL      0.113403
    150 H70         7.6850   -1.2170   -4.9780 hc        1 MOL      0.113403
    151 H71         6.2770   -1.4060   -3.9500 hc        1 MOL      0.113403
    152 N14         6.1000    0.9160   -1.5850 n         1 MOL     -0.060442
    153 C49         5.4420    2.1100   -1.0260 c3        1 MOL     -0.037151
    154 C50         5.9820    2.3600    0.4040 c         1 MOL      0.441840
    155 O20         6.1160    3.5320    0.8470 o         1 MOL     -0.577304
    156 C51         3.8960    1.9500   -1.0060 c3        1 MOL     -0.051196
    157 C52         3.3210    1.1760    0.1060 c3        1 MOL     -0.108388
    158 C53         1.9950    0.6400   -0.3140 c         1 MOL      0.623716
    159 O21         1.9370   -0.4650   -0.8860 o         1 MOL     -0.629986
    160 O22         0.9010    1.2400   -0.1560 o         1 MOL     -0.629986
    161 H72         5.6360    0.0200   -1.5870 hn        1 MOL      0.039070
    162 H73         5.6490    3.0530   -1.5300 h1        1 MOL      0.103008
    163 H74         3.5380    1.4570   -1.9120 hc        1 MOL      0.037192
    164 H75         3.5170    2.9740   -0.9830 hc        1 MOL      0.037192
    165 H76         3.3230    1.8350    0.9720 hc        1 MOL      0.066487
    166 H77         3.9590    0.3200    0.3280 hc        1 MOL      0.066487
    167 N15         6.5490    1.4030    1.1090 n         1 MOL     -0.054289
    168 C54         7.3260    1.6070    2.3080 c3        1 MOL     -0.266824
    169 H78         6.6790    1.5120    3.1800 h1        1 MOL      0.107651
    170 H79         8.1170    0.8590    2.3590 h1        1 MOL      0.107651
    171 H80         7.7680    2.6020    2.2900 h1        1 MOL      0.107651
    172 H81         6.2480    0.4700    0.8590 hn        1 MOL      0.098069
    173 Ca1        -0.7350   -0.2370   -1.3140 Ca        1 MOL      1.696550
    174 O23         1.1610    0.3260   -3.4260 oh        1 MOL     -0.738293
    175 H82         1.8410    0.2890   -2.7500 ho        1 MOL      0.380189
    176 H83         1.5120   -0.1930   -4.1510 ho        1 MOL      0.380189
    177 O24         0.4570   -2.4170   -2.3860 oh        1 MOL     -0.738293
    178 H84         0.6790   -3.3150   -2.1520 ho        1 MOL      0.380189
    179 H85         0.5790   -2.3750   -3.3370 ho        1 MOL      0.380189
@<TRIPOS>BOND
     1    1    2 1   
     2    1    4 1   
     3    1    5 1   
     4    1    6 1   
     5    2    3 2   
     6    2    7 1   
     7    7    8 1   
     8    7   15 1   
     9    8    9 1   
    10    8   11 1   
    11    8   16 1   
    12    9   10 2   
    13    9   19 1   
    14   11   12 1   
    15   11   17 1   
    16   11   18 1   
    17   12   13 1   
    18   12   14 1   
    19   19   20 1   
    20   19   28 1   
    21   20   21 1   
    22   20   23 1   
    23   20   29 1   
    24   21   22 2   
    25   21   41 1   
    26   23   24 1   
    27   23   30 1   
    28   23   31 1   
    29   24   25 1   
    30   24   32 1   
    31   24   33 1   
    32   25   26 1   
    33   25   34 1   
    34   25   35 1   
    35   26   27 1   
    36   26   36 1   
    37   26   37 1   
    38   27   38 1   
    39   27   39 1   
    40   27   40 1   
    41   41   42 1   
    42   41   49 1   
    43   42   43 1   
    44   42   45 1   
    45   42   50 1   
    46   43   44 2   
    47   43   53 1   
    48   45   46 1   
    49   45   51 1   
    50   45   52 1   
    51   46   47 1   
    52   46   48 1   
    53   53   54 1   
    54   53   57 1   
    55   54   55 1   
    56   54   58 1   
    57   54   59 1   
    58   55   56 2   
    59   55   60 1   
    60   60   61 1   
    61   60   68 1   
    62   61   62 1   
    63   61   64 1   
    64   61   69 1   
    65   62   63 2   
    66   62   74 1   
    67   64   65 1   
    68   64   70 1   
    69   64   71 1   
    70   65   66 1   
    71   65   67 2   
    72   66   72 1   
    73   66   73 1   
    74   74   75 1   
    75   74   78 1   
    76   75   76 1   
    77   75   79 1   
    78   75   80 1   
    79   76   77 2   
    80   76   81 1   
    81   81   82 1   
    82   81   93 1   
    83   82   83 1   
    84   82   85 1   
    85   82   94 1   
    86   83   84 2   
    87   83  102 1   
    88   85   86 1   
    89   85   95 1   
    90   85   96 1   
    91   86   87 ar  
    92   86   88 ar  
    93   87   89 ar  
    94   87   97 1   
    95   88   90 ar  
    96   88   98 1   
    97   89   91 ar  
    98   89   99 1   
    99   90   91 ar  
   100   90  100 1   
   101   91   92 1   
   102   92  101 1   
   103  102  103 1   
   104  102  110 1   
   105  103  104 1   
   106  103  106 1   
   107  103  111 1   
   108  104  105 2   
   109  104  121 1   
   110  106  107 1   
   111  106  108 1   
   112  106  112 1   
   113  107  109 1   
   114  107  113 1   
   115  107  114 1   
   116  108  115 1   
   117  108  116 1   
   118  108  117 1   
   119  109  118 1   
   120  109  119 1   
   121  109  120 1   
   122  121  122 1   
   123  121  127 1   
   124  122  123 1   
   125  122  125 1   
   126  122  128 1   
   127  123  124 2   
   128  123  132 1   
   129  125  126 1   
   130  125  129 1   
   131  125  130 1   
   132  126  131 1   
   133  132  133 1   
   134  132  137 1   
   135  133  134 1   
   136  133  136 1   
   137  133  138 1   
   138  134  135 2   
   139  134  142 1   
   140  136  139 1   
   141  136  140 1   
   142  136  141 1   
   143  142  143 1   
   144  142  147 1   
   145  143  144 1   
   146  143  146 1   
   147  143  148 1   
   148  144  145 2   
   149  144  152 1   
   150  146  149 1   
   151  146  150 1   
   152  146  151 1   
   153  152  153 1   
   154  152  161 1   
   155  153  154 1   
   156  153  156 1   
   157  153  162 1   
   158  154  155 2   
   159  154  167 1   
   160  156  157 1   
   161  156  163 1   
   162  156  164 1   
   163  157  158 1   
   164  157  165 1   
   165  157  166 1   
   166  158  159 1   
   167  158  160 1   
   168  167  168 1   
   169  167  172 1   
   170  168  169 1   
   171  168  170 1   
   172  168  171 1   
   173  174  175 1   
   174  174  176 1   
   175  177  178 1   
   176  177  179 1   
@<TRIPOS>SUBSTRUCTURE
     1 MOL         1 TEMP              0 ****  ****    0 ROOT
