@<TRIPOS>MOLECULE
MOL
  189   185     1     0     0
SMALL
resp


@<TRIPOS>ATOM
      1 C1         -0.3650    2.7340    5.4590 c3        1 MOL     -0.377582
      2 C2         -0.7400    2.3140    4.0080 c         1 MOL      0.728296
      3 O1         -0.0310    2.6180    3.0510 o         1 MOL     -0.602377
      4 H1          0.7170    2.7040    5.5770 hc        1 MOL      0.098128
      5 H2         -0.7220    3.7470    5.6480 hc        1 MOL      0.098128
      6 H3         -0.8270    2.0470    6.1680 hc        1 MOL      0.098128
      7 N1         -1.9070    1.6660    3.8430 n         1 MOL     -0.582974
      8 C3         -2.4480    1.4610    2.5160 c3        1 MOL      0.310911
      9 C4         -2.9320    2.7950    1.9210 c         1 MOL      0.428778
     10 O2         -3.6820    3.5460    2.5800 o         1 MOL     -0.566298
     11 C5         -3.4700    0.3120    2.6040 c3        1 MOL     -0.269533
     12 C6         -4.1900    0.0430    1.2920 c         1 MOL      0.762293
     13 O3         -5.1930   -0.7190    1.2480 o         1 MOL     -0.682440
     14 O4         -3.6620    0.3530    0.2050 o         1 MOL     -0.682440
     15 H4         -2.4600    1.4980    4.6710 hn        1 MOL      0.311132
     16 H5         -1.6540    1.0310    1.9070 h1        1 MOL     -0.003718
     17 H6         -4.2670    0.5740    3.3040 hc        1 MOL      0.054256
     18 H7         -2.9800   -0.6210    2.8910 hc        1 MOL      0.054256
     19 N2         -2.2270    3.2580    0.8470 n         1 MOL     -0.263309
     20 C7         -2.3740    4.6230    0.3880 c3        1 MOL      0.045680
     21 C8         -3.3620    4.7810   -0.7920 c         1 MOL      0.392604
     22 O5         -4.0320    5.7830   -0.8600 o         1 MOL     -0.546512
     23 C9         -0.9340    5.2040    0.1030 c3        1 MOL     -0.133505
     24 C10        -1.0580    6.6810   -0.4040 c3        1 MOL     -0.050111
     25 C11        -1.4310    7.7430    0.6150 c3        1 MOL     -0.051185
     26 C12        -0.3980    7.8710    1.7180 c3        1 MOL      0.111182
     27 N3         -0.8010    9.0180    2.5350 n4        1 MOL     -0.380660
     28 H8         -1.4450    2.7530    0.4630 hn        1 MOL      0.179064
     29 H9         -2.8000    5.2060    1.1950 h1        1 MOL      0.094564
     30 H10        -0.4020    4.5660   -0.6080 hc        1 MOL      0.070411
     31 H11        -0.4020    5.2150    1.0570 hc        1 MOL      0.070411
     32 H12        -1.7560    6.6830   -1.2400 hc        1 MOL      0.033945
     33 H13        -0.0680    6.9600   -0.7720 hc        1 MOL      0.033945
     34 H14        -2.3980    7.4320    0.9950 hc        1 MOL      0.039866
     35 H15        -1.4870    8.6620    0.0330 hc        1 MOL      0.039866
     36 H16         0.5610    8.0350    1.2250 hx        1 MOL      0.063500
     37 H17        -0.3410    6.9430    2.2800 hx        1 MOL      0.063500
     38 H18        -0.0610    9.3460    3.1430 hn        1 MOL      0.325644
     39 H19        -1.1080    9.8310    2.0300 hn        1 MOL      0.325644
     40 H20        -1.5160    8.7700    3.2020 hn        1 MOL      0.325644
     41 N4         -3.4140    3.7610   -1.6330 n         1 MOL     -0.175840
     42 C13        -4.4520    3.7090   -2.6590 c3        1 MOL      0.018731
     43 C14        -5.7800    3.0620   -2.1380 c         1 MOL      0.413825
     44 O6         -6.8830    3.4570   -2.6280 o         1 MOL     -0.547080
     45 C15        -3.9910    3.0090   -3.8890 c3        1 MOL     -0.249619
     46 C16        -3.2280    1.7450   -3.6810 c         1 MOL      0.803926
     47 O7         -3.1630    1.1880   -2.5490 o         1 MOL     -0.684485
     48 O8         -2.6920    1.2290   -4.6600 o         1 MOL     -0.684485
     49 H21        -2.6490    3.1020   -1.6740 hn        1 MOL      0.210796
     50 H22        -4.5760    4.7410   -2.9750 h1        1 MOL      0.078041
     51 H23        -3.2430    3.6630   -4.3390 hc        1 MOL      0.068422
     52 H24        -4.8240    2.8240   -4.5700 hc        1 MOL      0.068422
     53 N5         -5.6990    2.0740   -1.2440 n         1 MOL     -0.020969
     54 C17        -6.8120    1.3040   -0.7210 c3        1 MOL     -0.102751
     55 C18        -7.2610    0.1020   -1.4820 c         1 MOL      0.665399
     56 O9         -8.4350    0.0610   -1.9010 o         1 MOL     -0.578886
     57 H25        -4.7790    1.6960   -1.0770 hn        1 MOL     -0.009349
     58 H26        -7.6410    2.0050   -0.6680 h1        1 MOL      0.047702
     59 H27        -6.5880    0.9560    0.2810 h1        1 MOL      0.047702
     60 N6         -6.3330   -0.8840   -1.5420 n         1 MOL     -0.447435
     61 C19        -6.5860   -2.2160   -2.1780 c3        1 MOL      0.063338
     62 C20        -6.6090   -3.3370   -1.1380 c         1 MOL      0.438400
     63 O10        -6.6090   -4.5320   -1.4340 o         1 MOL     -0.523246
     64 C21        -5.5470   -2.3990   -3.2660 c3        1 MOL     -0.223696
     65 C22        -4.1140   -2.1910   -2.7540 c         1 MOL      0.705687
     66 O11        -3.8160   -2.4010   -1.5770 o         1 MOL     -0.702168
     67 O12        -3.1950   -1.8360   -3.5550 o         1 MOL     -0.702168
     68 H28        -5.4800   -0.7990   -0.9960 hn        1 MOL      0.247171
     69 H29        -7.5960   -2.1800   -2.6050 h1        1 MOL      0.087746
     70 H30        -5.7720   -1.6750   -4.0480 hc        1 MOL      0.080784
     71 H31        -5.6840   -3.4090   -3.6810 hc        1 MOL      0.080784
     72 N7         -6.5400   -2.9640    0.1800 n         1 MOL     -0.331950
     73 C23        -6.6170   -3.9520    1.2780 c3        1 MOL     -0.163125
     74 C24        -5.2540   -4.5000    1.7370 c         1 MOL      0.484772
     75 O13        -5.1920   -5.4350    2.5060 o         1 MOL     -0.559727
     76 H32        -6.3580   -1.9870    0.3640 hn        1 MOL      0.255677
     77 H33        -7.2240   -4.8050    0.9640 h1        1 MOL      0.120372
     78 H34        -7.1360   -3.4400    2.0850 h1        1 MOL      0.120372
     79 N8         -4.1540   -3.9520    1.2020 n         1 MOL     -0.112920
     80 C25        -2.8310   -4.4400    1.4160 c3        1 MOL     -0.285180
     81 C26        -1.6940   -3.4300    1.4390 c         1 MOL      0.763361
     82 O14        -1.8640   -2.3900    0.7890 o         1 MOL     -0.715404
     83 C27        -2.5200   -5.4160    0.3190 c3        1 MOL      0.437200
     84 C28        -3.5100   -6.5530    0.2040 c3        1 MOL     -0.308482
     85 O15        -2.3440   -4.8810   -0.9640 oh        1 MOL     -0.609922
     86 H35        -4.3470   -3.2790    0.4810 hn        1 MOL      0.158227
     87 H36        -2.8520   -4.8880    2.4080 h1        1 MOL      0.105553
     88 H37        -1.5690   -5.8340    0.6500 h1        1 MOL     -0.022979
     89 H38        -3.1280   -4.3500   -1.1150 ho        1 MOL      0.417406
     90 H39        -3.1980   -7.3050   -0.5190 hc        1 MOL      0.079261
     91 H40        -3.5230   -7.0400    1.1750 hc        1 MOL      0.079261
     92 H41        -4.4420   -6.1260   -0.1660 hc        1 MOL      0.079261
     93 N9         -0.5480   -3.5890    2.1190 n         1 MOL     -0.493507
     94 C29         0.5710   -2.6680    2.2740 c3        1 MOL      0.037875
     95 C30         1.7970   -3.2380    1.5000 c         1 MOL      0.381068
     96 O16         2.3520   -4.3040    1.8480 o         1 MOL     -0.531007
     97 C31         0.9740   -2.4060    3.7430 c3        1 MOL      0.150526
     98 C32        -0.2190   -2.3360    4.7160 c3        1 MOL      0.382717
     99 C33         1.9280   -1.1480    3.9380 c3        1 MOL     -0.498391
    100 C34         0.1310   -2.2860    6.1960 c3        1 MOL     -0.415141
    101 H42        -0.5220   -4.4560    2.6400 hn        1 MOL      0.268509
    102 H43         0.4080   -1.7040    1.7910 h1        1 MOL      0.093131
    103 H44         1.4890   -3.2730    4.1470 hc        1 MOL     -0.024944
    104 H45        -0.9160   -3.1480    4.5130 hc        1 MOL     -0.086127
    105 H46        -0.7770   -1.4080    4.5490 hc        1 MOL     -0.086127
    106 H47         2.0990   -0.9270    5.0000 hc        1 MOL      0.113588
    107 H48         2.8320   -1.2630    3.3390 hc        1 MOL      0.113588
    108 H49         1.3840   -0.3010    3.5320 hc        1 MOL      0.113588
    109 H50         0.8520   -3.0630    6.4090 hc        1 MOL      0.090579
    110 H51         0.5360   -1.3090    6.4720 hc        1 MOL      0.090579
    111 H52        -0.7560   -2.5840    6.7560 hc        1 MOL      0.090579
    112 N10         2.2740   -2.4640    0.4900 n         1 MOL     -0.055047
    113 C35         3.5240   -2.7890   -0.2130 c3        1 MOL     -0.267556
    114 C36         4.8360   -2.2600    0.4930 c         1 MOL      0.521987
    115 O17         4.7490   -1.3070    1.2310 o         1 MOL     -0.329960
    116 C37         3.4890   -2.2970   -1.7160 c3        1 MOL      0.436098
    117 C38         2.5500   -3.1410   -2.6080 c3        1 MOL     -0.507436
    118 O18         3.1780   -0.8700   -1.6820 oh        1 MOL     -0.643230
    119 H53         1.7120   -1.6550    0.2470 hn        1 MOL      0.231286
    120 H54         3.5660   -3.8740   -0.3010 h1        1 MOL      0.091465
    121 H55         4.4680   -2.3900   -2.1730 h1        1 MOL     -0.036969
    122 H56         2.4600   -0.7520   -1.0590 ho        1 MOL      0.431564
    123 H57         2.9110   -4.1250   -2.9130 hc        1 MOL      0.140832
    124 H58         1.6820   -3.2720   -1.9590 hc        1 MOL      0.140832
    125 H59         2.2580   -2.5910   -3.5010 hc        1 MOL      0.140832
    126 N11         6.0150   -2.8040    0.1670 n         1 MOL     -0.482068
    127 C39         7.2600   -2.2320    0.6400 c3        1 MOL      0.024735
    128 C40         7.5280   -0.7420    0.4590 c         1 MOL      0.134849
    129 O19         8.1760   -0.1530    1.3250 o         1 MOL     -0.445010
    130 C41         8.4410   -2.9050   -0.1200 c3        1 MOL      0.318441
    131 C42         8.6180   -4.3710    0.0250 c3        1 MOL     -0.549879
    132 O20         8.2390   -2.7170   -1.4920 oh        1 MOL     -0.578117
    133 H60         6.0080   -3.6670   -0.3600 hn        1 MOL      0.306522
    134 H61         7.4290   -2.3270    1.7170 h1        1 MOL      0.119517
    135 H62         9.3980   -2.5170    0.2430 h1        1 MOL      0.047188
    136 H63         9.0850   -2.4280   -1.8550 ho        1 MOL      0.339962
    137 H64         9.2250   -4.8520   -0.7390 hc        1 MOL      0.154243
    138 H65         8.9260   -4.6510    1.0370 hc        1 MOL      0.154243
    139 H66         7.7120   -4.9330   -0.2220 hc        1 MOL      0.154243
    140 N12         7.0250   -0.1570   -0.6480 n         1 MOL     -0.061280
    141 C43         7.1530    1.3050   -0.9050 c3        1 MOL     -0.018754
    142 C44         6.1260    2.1450   -0.1310 c         1 MOL      0.412392
    143 O21         6.3620    3.2820    0.2260 o         1 MOL     -0.502396
    144 C45         6.9770    1.5990   -2.4460 c3        1 MOL     -0.233758
    145 C46         8.2710    1.2540   -3.1630 c3        1 MOL      0.170134
    146 C47         8.3150    1.2170   -4.7150 c3        1 MOL     -0.110654
    147 C48         9.6670    1.0600   -5.2220 c3        1 MOL     -0.055468
    148 N13        10.3230   -0.2240   -4.7350 n4        1 MOL     -0.401104
    149 H67         6.6460   -0.7180   -1.3890 hn        1 MOL      0.239148
    150 H68         8.1490    1.6630   -0.6650 h1        1 MOL      0.084533
    151 H69         6.7070    2.6440   -2.6200 hc        1 MOL      0.095771
    152 H70         6.1710    0.9730   -2.8380 hc        1 MOL      0.095771
    153 H71         8.6330    0.2530   -2.9130 hc        1 MOL     -0.035052
    154 H72         9.0180    1.9650   -2.8200 hc        1 MOL     -0.035052
    155 H73         7.9060    2.1480   -5.1210 hc        1 MOL      0.068874
    156 H74         7.6350    0.4390   -5.0630 hc        1 MOL      0.068874
    157 H75        10.2870    1.8890   -4.8660 hx        1 MOL      0.138499
    158 H76         9.6860    1.2730   -6.2940 hx        1 MOL      0.138499
    159 H77        10.9560   -0.7080   -5.3680 hn        1 MOL      0.313125
    160 H78        10.8550   -0.1590   -3.8820 hn        1 MOL      0.313125
    161 H79         9.6080   -0.9130   -4.5360 hn        1 MOL      0.313125
    162 N14         4.9700    1.5580    0.1180 n         1 MOL     -0.136363
    163 C49         3.9380    2.2260    1.0000 c3        1 MOL     -0.103425
    164 C50         4.4460    2.1750    2.4300 c         1 MOL      0.367264
    165 O22         4.4620    3.2330    3.1460 o         1 MOL     -0.548119
    166 C51         2.6280    1.4390    0.9470 c3        1 MOL      0.158225
    167 C52         1.8300    1.9580   -0.2130 c3        1 MOL     -0.013374
    168 C53         0.6360    1.1070   -0.4990 c         1 MOL      0.705835
    169 O23         0.8030   -0.1480   -0.5310 o         1 MOL     -0.738472
    170 O24        -0.5100    1.5570   -0.8180 o         1 MOL     -0.738472
    171 H80         4.8180    0.5960   -0.1320 hn        1 MOL      0.044126
    172 H81         3.8330    3.2830    0.7330 h1        1 MOL      0.104772
    173 H82         2.0620    1.5750    1.8760 hc        1 MOL     -0.039854
    174 H83         2.9590    0.4040    0.9790 hc        1 MOL     -0.039854
    175 H84         2.4230    2.0000   -1.1270 hc        1 MOL     -0.006781
    176 H85         1.6180    3.0030    0.0330 hc        1 MOL     -0.006781
    177 N15         5.0270    1.0780    2.9330 n         1 MOL      0.007220
    178 C54         5.4890    1.0040    4.2840 c3        1 MOL     -0.286850
    179 H86         6.5630    1.1860    4.3100 h1        1 MOL      0.099518
    180 H87         4.9780    1.7560    4.8850 h1        1 MOL      0.099518
    181 H88         5.2790    0.0130    4.6860 h1        1 MOL      0.099518
    182 H89         5.0400    0.2380    2.3720 hn        1 MOL      0.155902
    183 Ca1        -1.8720   -0.6880   -1.3680 Ca        1 MOL      1.762800
    184 O25        -0.6440   -0.0490   -3.9060 oh        1 MOL     -0.872831
    185 H90        -1.4700    0.3140   -4.2310 ho        1 MOL      0.395861
    186 H91        -0.0510    0.0110   -4.6500 ho        1 MOL      0.395861
    187 O26        -0.5280   -2.8940   -1.8510 oh        1 MOL     -0.872831
    188 H92        -1.1630   -3.5940   -1.7080 ho        1 MOL      0.395861
    189 H93        -0.3380   -2.9340   -2.8000 ho        1 MOL      0.395861
@<TRIPOS>BOND
     1    1    2 1   
     2    1    4 1   
     3    1    5 1   
     4    1    6 1   
     5    2    3 2   
     6    2    7 1   
     7    7    8 1   
     8    7   15 1   
     9    8    9 1   
    10    8   11 1   
    11    8   16 1   
    12    9   10 2   
    13    9   19 1   
    14   11   12 1   
    15   11   17 1   
    16   11   18 1   
    17   12   13 1   
    18   12   14 1   
    19   19   20 1   
    20   19   28 1   
    21   20   21 1   
    22   20   23 1   
    23   20   29 1   
    24   21   22 2   
    25   21   41 1   
    26   23   24 1   
    27   23   30 1   
    28   23   31 1   
    29   24   25 1   
    30   24   32 1   
    31   24   33 1   
    32   25   26 1   
    33   25   34 1   
    34   25   35 1   
    35   26   27 1   
    36   26   36 1   
    37   26   37 1   
    38   27   38 1   
    39   27   39 1   
    40   27   40 1   
    41   41   42 1   
    42   41   49 1   
    43   42   43 1   
    44   42   45 1   
    45   42   50 1   
    46   43   44 2   
    47   43   53 1   
    48   45   46 1   
    49   45   51 1   
    50   45   52 1   
    51   46   47 1   
    52   46   48 1   
    53   53   54 1   
    54   53   57 1   
    55   54   55 1   
    56   54   58 1   
    57   54   59 1   
    58   55   56 2   
    59   55   60 1   
    60   60   61 1   
    61   60   68 1   
    62   61   62 1   
    63   61   64 1   
    64   61   69 1   
    65   62   63 2   
    66   62   72 1   
    67   64   65 1   
    68   64   70 1   
    69   64   71 1   
    70   65   66 1   
    71   65   67 1   
    72   72   73 1   
    73   72   76 1   
    74   73   74 1   
    75   73   77 1   
    76   73   78 1   
    77   74   75 2   
    78   74   79 1   
    79   79   80 1   
    80   79   86 1   
    81   80   81 1   
    82   80   83 1   
    83   80   87 1   
    84   81   82 2   
    85   81   93 1   
    86   83   84 1   
    87   83   85 1   
    88   83   88 1   
    89   84   90 1   
    90   84   91 1   
    91   84   92 1   
    92   85   89 1   
    93   93   94 1   
    94   93  101 1   
    95   94   95 1   
    96   94   97 1   
    97   94  102 1   
    98   95   96 2   
    99   95  112 1   
   100   97   98 1   
   101   97   99 1   
   102   97  103 1   
   103   98  100 1   
   104   98  104 1   
   105   98  105 1   
   106   99  106 1   
   107   99  107 1   
   108   99  108 1   
   109  100  109 1   
   110  100  110 1   
   111  100  111 1   
   112  112  113 1   
   113  112  119 1   
   114  113  114 1   
   115  113  116 1   
   116  113  120 1   
   117  114  115 2   
   118  114  126 1   
   119  116  117 1   
   120  116  118 1   
   121  116  121 1   
   122  117  123 1   
   123  117  124 1   
   124  117  125 1   
   125  118  122 1   
   126  126  127 1   
   127  126  133 1   
   128  127  128 1   
   129  127  130 1   
   130  127  134 1   
   131  128  129 2   
   132  128  140 1   
   133  130  131 1   
   134  130  132 1   
   135  130  135 1   
   136  131  137 1   
   137  131  138 1   
   138  131  139 1   
   139  132  136 1   
   140  140  141 1   
   141  140  149 1   
   142  141  142 1   
   143  141  144 1   
   144  141  150 1   
   145  142  143 2   
   146  142  162 1   
   147  144  145 1   
   148  144  151 1   
   149  144  152 1   
   150  145  146 1   
   151  145  153 1   
   152  145  154 1   
   153  146  147 1   
   154  146  155 1   
   155  146  156 1   
   156  147  148 1   
   157  147  157 1   
   158  147  158 1   
   159  148  159 1   
   160  148  160 1   
   161  148  161 1   
   162  162  163 1   
   163  162  171 1   
   164  163  164 1   
   165  163  166 1   
   166  163  172 1   
   167  164  165 2   
   168  164  177 1   
   169  166  167 1   
   170  166  173 1   
   171  166  174 1   
   172  167  168 1   
   173  167  175 1   
   174  167  176 1   
   175  168  169 1   
   176  168  170 1   
   177  177  178 1   
   178  177  182 1   
   179  178  179 1   
   180  178  180 1   
   181  178  181 1   
   182  184  185 1   
   183  184  186 1   
   184  187  188 1   
   185  187  189 1   
@<TRIPOS>SUBSTRUCTURE
     1 MOL         1 TEMP              0 ****  ****    0 ROOT
