@<TRIPOS>MOLECULE
MOL
  182   178     1     0     0
SMALL
resp


@<TRIPOS>ATOM
      1 C1         -1.6890   -3.6170    5.4280 c3        1 MOL     -0.385929
      2 C2         -1.1410   -3.0280    4.1190 c         1 MOL      0.689650
      3 O1         -1.9000   -2.7590    3.1580 o         1 MOL     -0.629737
      4 H1         -0.8600   -3.9730    6.0410 hc        1 MOL      0.104829
      5 H2         -2.2370   -2.8480    5.9720 hc        1 MOL      0.104829
      6 H3         -2.3560   -4.4490    5.2020 hc        1 MOL      0.104829
      7 N1          0.1610   -2.8930    3.9530 n         1 MOL     -0.516562
      8 C3          0.8520   -2.5930    2.7360 c3        1 MOL      0.252650
      9 C4          1.0460   -3.9000    1.9410 c         1 MOL      0.324932
     10 O2          1.9260   -4.7150    2.2370 o         1 MOL     -0.542639
     11 C5          2.0930   -1.8060    3.0830 c3        1 MOL     -0.080680
     12 C6          2.8960   -1.3730    1.8760 c         1 MOL      0.578480
     13 O3          2.4270   -1.7250    0.7750 o         1 MOL     -0.661931
     14 O4          3.9870   -0.7280    1.9870 o         1 MOL     -0.661931
     15 H4          0.6730   -2.8260    4.8230 hn        1 MOL      0.280690
     16 H5          0.2790   -1.8710    2.1610 h1        1 MOL     -0.016600
     17 H6          2.7640   -2.4030    3.6970 hc        1 MOL      0.029777
     18 H7          1.7790   -0.9830    3.7270 hc        1 MOL      0.029777
     19 N2          0.3010   -4.0390    0.9290 n         1 MOL     -0.038173
     20 C7          0.2240   -5.2790    0.1110 c3        1 MOL     -0.148187
     21 C8          1.4490   -5.4630   -0.8110 c         1 MOL      0.448669
     22 O5          1.5050   -6.2990   -1.6780 o         1 MOL     -0.559581
     23 C9         -1.1400   -5.3230   -0.5940 c3        1 MOL     -0.133046
     24 C10        -2.4270   -5.3230    0.2300 c3        1 MOL     -0.081635
     25 C11        -3.7590   -5.4070   -0.5200 c3        1 MOL     -0.040968
     26 C12        -3.8690   -6.6720   -1.2910 c3        1 MOL      0.101230
     27 N3         -5.1970   -6.9560   -1.7950 n4        1 MOL     -0.352043
     28 H8         -0.3230   -3.3380    0.5590 hn        1 MOL      0.164366
     29 H9          0.2760   -6.1250    0.7940 h1        1 MOL      0.133542
     30 H10        -1.1140   -6.0850   -1.3780 hc        1 MOL      0.059664
     31 H11        -1.2210   -4.4190   -1.2010 hc        1 MOL      0.059664
     32 H12        -2.4950   -4.4070    0.8070 hc        1 MOL      0.071110
     33 H13        -2.4400   -6.1710    0.9170 hc        1 MOL      0.071110
     34 H14        -3.8190   -4.5780   -1.2240 hc        1 MOL      0.054870
     35 H15        -4.5940   -5.3030    0.1690 hc        1 MOL      0.054870
     36 H16        -3.6780   -7.5070   -0.6160 hx        1 MOL      0.064456
     37 H17        -3.1250   -6.7290   -2.0740 hx        1 MOL      0.064456
     38 H18        -5.2020   -7.4160   -2.6910 hn        1 MOL      0.321180
     39 H19        -5.7150   -7.6570   -1.2840 hn        1 MOL      0.321180
     40 H20        -5.7790   -6.1300   -1.8720 hn        1 MOL      0.321180
     41 N4          2.4570   -4.5580   -0.9260 n         1 MOL      0.014971
     42 C13         3.7440   -4.7310   -1.6240 c3        1 MOL     -0.038541
     43 C14         4.9690   -4.3130   -0.7470 c         1 MOL      0.439981
     44 O6          6.0550   -4.7520   -1.1650 o         1 MOL     -0.514523
     45 C15         3.6980   -4.1610   -3.0120 c3        1 MOL     -0.038860
     46 C16         3.7070   -2.5860   -3.0880 c         1 MOL      0.807438
     47 O7          4.1430   -2.1830   -4.2060 o         1 MOL     -0.744646
     48 O8          3.5210   -1.8160   -2.0750 o         1 MOL     -0.744646
     49 H21         2.3330   -3.7610   -0.3260 hn        1 MOL     -0.196998
     50 H22         3.8470   -5.8040   -1.7620 h1        1 MOL      0.078350
     51 H23         2.8020   -4.4640   -3.5560 hc        1 MOL      0.022787
     52 H24         4.5560   -4.5290   -3.5800 hc        1 MOL      0.022787
     53 N5          4.8080   -3.4910    0.3090 n         1 MOL     -0.310357
     54 C17         5.9320   -3.1270    1.1860 c3        1 MOL     -0.240560
     55 C18         6.8060   -1.9290    0.6930 c         1 MOL      0.495784
     56 O9          7.9440   -1.7220    1.0640 o         1 MOL     -0.551647
     57 H25         3.9150   -3.0510    0.5000 hn        1 MOL      0.404266
     58 H26         6.5900   -3.9860    1.2250 h1        1 MOL      0.130643
     59 H27         5.5900   -2.9450    2.1990 h1        1 MOL      0.130643
     60 N6          6.1300   -1.1030   -0.1050 n         1 MOL     -0.042163
     61 C19         6.6690    0.0810   -0.7750 c3        1 MOL     -0.178238
     62 C20         6.6620    1.3670    0.1170 c         1 MOL      0.445457
     63 O10         7.4260    2.3280   -0.1840 o         1 MOL     -0.495567
     64 C21         5.9950    0.2510   -2.1460 c3        1 MOL     -0.049229
     65 C22         4.6320    0.9590   -2.0410 c         1 MOL      0.365431
     66 N7          4.4280    1.7050   -3.0810 n         1 MOL     -0.452390
     67 O11         3.8520    0.9830   -1.1220 o         1 MOL     -0.490724
     68 H28         5.1210   -1.2180   -0.1580 hn        1 MOL      0.074662
     69 H29         7.6930   -0.0380   -1.0990 h1        1 MOL      0.124283
     70 H30         5.7630   -0.7040   -2.6130 hc        1 MOL      0.081952
     71 H31         6.6950    0.8850   -2.6950 hc        1 MOL      0.081952
     72 H32         5.1510    1.5770   -3.7700 hn        1 MOL      0.256740
     73 H33         3.5000    2.0720   -3.2690 hn        1 MOL      0.256740
     74 N8          6.0570    1.3150    1.2980 n         1 MOL     -0.258909
     75 C23         5.8370    2.4190    2.2140 c3        1 MOL     -0.186058
     76 C24         4.5510    3.1210    2.0520 c         1 MOL      0.689435
     77 O12         4.3830    4.1410    2.7860 o         1 MOL     -0.611953
     78 H34         5.4980    0.5080    1.5010 hn        1 MOL      0.265482
     79 H35         6.6990    3.0570    2.0240 h1        1 MOL      0.119193
     80 H36         5.8850    2.1070    3.2590 h1        1 MOL      0.119193
     81 N9          3.5930    2.7180    1.2130 n         1 MOL     -0.525706
     82 C25         2.3660    3.5320    0.9870 c3        1 MOL      0.129325
     83 C26         1.0740    2.7220    0.9450 c         1 MOL      0.589236
     84 O13         1.0550    1.6050    0.4170 o         1 MOL     -0.576750
     85 C27         2.5460    4.3070   -0.3460 c3        1 MOL      0.130960
     86 C28         3.7160    5.2590   -0.3760 ca        1 MOL     -0.101803
     87 C29         4.9670    4.7500   -0.6620 ca        1 MOL     -0.044394
     88 C30         3.5460    6.6310   -0.1530 ca        1 MOL     -0.044394
     89 C31         6.1320    5.5890   -0.7260 ca        1 MOL     -0.413390
     90 C32         4.6340    7.5350   -0.2210 ca        1 MOL     -0.413390
     91 C33         5.9490    6.9420   -0.4490 ca        1 MOL      0.502468
     92 O14         7.0020    7.7670   -0.3930 oh        1 MOL     -0.472789
     93 H37         3.7360    1.9050    0.6360 hn        1 MOL      0.294242
     94 H38         2.2470    4.3310    1.7110 h1        1 MOL      0.054290
     95 H39         1.6450    4.8900   -0.5560 hc        1 MOL     -0.036171
     96 H40         2.6520    3.5600   -1.1310 hc        1 MOL     -0.036171
     97 H41         5.1160    3.6930   -0.8270 ha        1 MOL      0.098435
     98 H42         2.5680    7.0080    0.1030 ha        1 MOL      0.098435
     99 H43         7.1320    5.1890   -0.8000 ha        1 MOL      0.185581
    100 H44         4.5080    8.5890    0.0110 ha        1 MOL      0.185581
    101 H45         6.6240    8.6280   -0.2090 ho        1 MOL      0.327121
    102 N10        -0.0980    3.2250    1.4450 n         1 MOL     -0.607010
    103 C34        -1.4750    2.7090    1.4240 c3        1 MOL     -0.014014
    104 C35        -2.5320    3.6570    0.6990 c         1 MOL      0.641511
    105 O15        -2.8980    4.6740    1.2010 o         1 MOL     -0.520384
    106 C36        -1.9660    2.3150    2.8620 c3        1 MOL     -0.010083
    107 C37        -1.0090    1.2090    3.4090 c3        1 MOL      0.157688
    108 C38        -3.4160    1.8650    2.9630 c3        1 MOL     -0.129501
    109 C39        -1.1930    0.6890    4.8640 c3        1 MOL     -0.301091
    110 H46         0.0020    4.0700    1.9990 hn        1 MOL      0.318488
    111 H47        -1.5370    1.7990    0.8220 h1        1 MOL      0.121195
    112 H48        -1.9270    3.2570    3.4030 hc        1 MOL      0.031985
    113 H49         0.0420    1.4450    3.2330 hc        1 MOL      0.000704
    114 H50        -1.2400    0.3600    2.7640 hc        1 MOL      0.000704
    115 H51        -3.9280    2.2950    3.8140 hc        1 MOL      0.022028
    116 H52        -3.9890    1.9890    2.0370 hc        1 MOL      0.022028
    117 H53        -3.2720    0.8070    3.1620 hc        1 MOL      0.022028
    118 H54        -0.5160   -0.1470    5.0520 hc        1 MOL      0.072956
    119 H55        -1.1310    1.5180    5.5620 hc        1 MOL      0.072956
    120 H56        -2.1920    0.2520    4.9610 hc        1 MOL      0.072956
    121 N11        -3.0500    3.2360   -0.4980 n         1 MOL     -0.446903
    122 C40        -4.1330    3.8730   -1.3130 c3        1 MOL     -0.017817
    123 C41        -5.5080    3.5350   -0.7570 c         1 MOL      0.420608
    124 O16        -5.6600    2.6650    0.1740 o         1 MOL     -0.333381
    125 C42        -3.9320    3.3450   -2.7160 c3        1 MOL     -0.153266
    126 O17        -4.2380    1.9450   -2.5980 oh        1 MOL     -0.449611
    127 H57        -2.8160    2.2930   -0.7840 hn        1 MOL      0.225503
    128 H58        -3.9720    4.9500   -1.4380 h1        1 MOL      0.103925
    129 H59        -2.9250    3.4210   -3.1220 h1        1 MOL      0.126423
    130 H60        -4.5730    3.7630   -3.4900 h1        1 MOL      0.126423
    131 H61        -3.6000    1.4880   -3.1540 ho        1 MOL      0.370248
    132 N12        -6.5060    4.1820   -1.3810 n         1 MOL     -0.386519
    133 C43        -7.8800    3.9690   -0.8630 c3        1 MOL      0.012221
    134 C44        -8.3260    2.4670   -0.9410 c         1 MOL      0.460680
    135 O18        -9.0760    2.1190    0.0050 o         1 MOL     -0.492523
    136 C45        -9.0120    4.8950   -1.4830 c3        1 MOL     -0.282679
    137 H62        -6.3250    4.7260   -2.2190 hn        1 MOL      0.292999
    138 H63        -7.7790    4.2430    0.1820 h1        1 MOL      0.121943
    139 H64        -8.9110    5.9330   -1.1690 hc        1 MOL      0.101245
    140 H65        -9.0540    4.8880   -2.5690 hc        1 MOL      0.101245
    141 H66       -10.0180    4.6230   -1.1790 hc        1 MOL      0.101245
    142 N13        -7.7480    1.6690   -1.9080 n         1 MOL     -0.360498
    143 C46        -7.9920    0.2350   -2.0670 c3        1 MOL     -0.008175
    144 C47        -7.3160   -0.5950   -0.9670 c         1 MOL      0.469946
    145 O19        -8.0020   -1.3430   -0.2760 o         1 MOL     -0.509428
    146 C48        -7.6450   -0.2510   -3.5030 c3        1 MOL     -0.106568
    147 H67        -6.9940    2.1240   -2.4170 hn        1 MOL      0.243099
    148 H68        -9.0650    0.1360   -2.0300 h1        1 MOL      0.119046
    149 H69        -6.5630   -0.1960   -3.6380 hc        1 MOL      0.034001
    150 H70        -7.9350   -1.2800   -3.6790 hc        1 MOL      0.034001
    151 H71        -8.0220    0.4090   -4.2780 hc        1 MOL      0.034001
    152 N14        -5.9940   -0.4000   -0.7580 n         1 MOL     -0.289749
    153 C49        -5.3090   -1.0390    0.3710 c3        1 MOL     -0.036553
    154 C50        -5.8750   -0.7170    1.7460 c         1 MOL      0.454795
    155 O20        -5.8570   -1.5930    2.5970 o         1 MOL     -0.556884
    156 C51        -3.8080   -0.5600    0.3870 c3        1 MOL     -0.152285
    157 C52        -2.9890   -1.4250   -0.5930 c3        1 MOL      0.090467
    158 C53        -1.5480   -0.9640   -0.7890 c         1 MOL      0.512162
    159 O21        -1.1440   -0.1920   -1.6770 o         1 MOL     -0.703246
    160 O22        -0.5810   -1.5200   -0.1760 o         1 MOL     -0.703246
    161 H72        -5.5530    0.3900   -1.2000 hn        1 MOL      0.151722
    162 H73        -5.3630   -2.1020    0.1500 h1        1 MOL      0.067059
    163 H74        -3.3540   -0.7810    1.3590 hc        1 MOL      0.168078
    164 H75        -3.7570    0.4990    0.1400 hc        1 MOL      0.168078
    165 H76        -3.4810   -1.4520   -1.5620 hc        1 MOL     -0.047174
    166 H77        -2.9790   -2.4560   -0.2690 hc        1 MOL     -0.047174
    167 N15        -6.3610    0.5130    2.0040 n         1 MOL     -0.013792
    168 C54        -7.1470    0.8120    3.2410 c3        1 MOL     -0.363895
    169 H78        -8.0920    1.2800    2.9670 h1        1 MOL      0.137119
    170 H79        -7.3440   -0.1140    3.7800 h1        1 MOL      0.137119
    171 H80        -6.5790    1.4900    3.8780 h1        1 MOL      0.137119
    172 H81        -6.2510    1.1670    1.2450 hn        1 MOL      0.082049
    173 Ca1         1.4460   -0.3690   -1.2510 Ca        1 MOL      1.731511
    174 O23         1.7260   -0.4170   -3.9470 oh        1 MOL     -0.771624
    175 H82         1.4390   -0.4520   -4.8680 ho        1 MOL      0.381632
    176 H83         2.5820   -0.8250   -3.9490 ho        1 MOL      0.381632
    177 O24         0.5900   -2.7000   -2.4930 oh        1 MOL     -0.771624
    178 H84         0.1650   -2.7840   -1.6380 ho        1 MOL      0.381632
    179 H85        -0.1010   -2.9200   -3.1190 ho        1 MOL      0.381632
    180 O25         0.7470    1.9250   -2.7060 oh        1 MOL     -0.771624
    181 H86         0.7960    1.7750   -3.6550 ho        1 MOL      0.381632
    182 H87         0.2530    2.7300   -2.6060 ho        1 MOL      0.381632
@<TRIPOS>BOND
     1    1    2 1   
     2    1    4 1   
     3    1    5 1   
     4    1    6 1   
     5    2    3 2   
     6    2    7 1   
     7    7    8 1   
     8    7   15 1   
     9    8    9 1   
    10    8   11 1   
    11    8   16 1   
    12    9   10 2   
    13    9   19 1   
    14   11   12 1   
    15   11   17 1   
    16   11   18 1   
    17   12   13 1   
    18   12   14 1   
    19   19   20 1   
    20   19   28 1   
    21   20   21 1   
    22   20   23 1   
    23   20   29 1   
    24   21   22 2   
    25   21   41 1   
    26   23   24 1   
    27   23   30 1   
    28   23   31 1   
    29   24   25 1   
    30   24   32 1   
    31   24   33 1   
    32   25   26 1   
    33   25   34 1   
    34   25   35 1   
    35   26   27 1   
    36   26   36 1   
    37   26   37 1   
    38   27   38 1   
    39   27   39 1   
    40   27   40 1   
    41   41   42 1   
    42   41   49 1   
    43   42   43 1   
    44   42   45 1   
    45   42   50 1   
    46   43   44 2   
    47   43   53 1   
    48   45   46 1   
    49   45   51 1   
    50   45   52 1   
    51   46   47 1   
    52   46   48 1   
    53   53   54 1   
    54   53   57 1   
    55   54   55 1   
    56   54   58 1   
    57   54   59 1   
    58   55   56 2   
    59   55   60 1   
    60   60   61 1   
    61   60   68 1   
    62   61   62 1   
    63   61   64 1   
    64   61   69 1   
    65   62   63 2   
    66   62   74 1   
    67   64   65 1   
    68   64   70 1   
    69   64   71 1   
    70   65   66 1   
    71   65   67 2   
    72   66   72 1   
    73   66   73 1   
    74   74   75 1   
    75   74   78 1   
    76   75   76 1   
    77   75   79 1   
    78   75   80 1   
    79   76   77 2   
    80   76   81 1   
    81   81   82 1   
    82   81   93 1   
    83   82   83 1   
    84   82   85 1   
    85   82   94 1   
    86   83   84 2   
    87   83  102 1   
    88   85   86 1   
    89   85   95 1   
    90   85   96 1   
    91   86   87 ar  
    92   86   88 ar  
    93   87   89 ar  
    94   87   97 1   
    95   88   90 ar  
    96   88   98 1   
    97   89   91 ar  
    98   89   99 1   
    99   90   91 ar  
   100   90  100 1   
   101   91   92 1   
   102   92  101 1   
   103  102  103 1   
   104  102  110 1   
   105  103  104 1   
   106  103  106 1   
   107  103  111 1   
   108  104  105 2   
   109  104  121 1   
   110  106  107 1   
   111  106  108 1   
   112  106  112 1   
   113  107  109 1   
   114  107  113 1   
   115  107  114 1   
   116  108  115 1   
   117  108  116 1   
   118  108  117 1   
   119  109  118 1   
   120  109  119 1   
   121  109  120 1   
   122  121  122 1   
   123  121  127 1   
   124  122  123 1   
   125  122  125 1   
   126  122  128 1   
   127  123  124 2   
   128  123  132 1   
   129  125  126 1   
   130  125  129 1   
   131  125  130 1   
   132  126  131 1   
   133  132  133 1   
   134  132  137 1   
   135  133  134 1   
   136  133  136 1   
   137  133  138 1   
   138  134  135 2   
   139  134  142 1   
   140  136  139 1   
   141  136  140 1   
   142  136  141 1   
   143  142  143 1   
   144  142  147 1   
   145  143  144 1   
   146  143  146 1   
   147  143  148 1   
   148  144  145 2   
   149  144  152 1   
   150  146  149 1   
   151  146  150 1   
   152  146  151 1   
   153  152  153 1   
   154  152  161 1   
   155  153  154 1   
   156  153  156 1   
   157  153  162 1   
   158  154  155 2   
   159  154  167 1   
   160  156  157 1   
   161  156  163 1   
   162  156  164 1   
   163  157  158 1   
   164  157  165 1   
   165  157  166 1   
   166  158  159 1   
   167  158  160 1   
   168  167  168 1   
   169  167  172 1   
   170  168  169 1   
   171  168  170 1   
   172  168  171 1   
   173  174  175 1   
   174  174  176 1   
   175  177  178 1   
   176  177  179 1   
   177  180  181 1   
   178  180  182 1   
@<TRIPOS>SUBSTRUCTURE
     1 MOL         1 TEMP              0 ****  ****    0 ROOT
