@<TRIPOS>MOLECULE
MOL
  175   173     1     0     0
SMALL
resp


@<TRIPOS>ATOM
      1 C1          0.7680    4.0610    5.2450 c3        1 MOL     -0.379925
      2 C2          0.0920    3.8260    3.9040 c         1 MOL      0.746884
      3 O1          0.8340    3.9840    2.9430 o         1 MOL     -0.585449
      4 H1          1.0410    3.1030    5.6870 hc        1 MOL      0.084244
      5 H2          1.6660    4.6620    5.1000 hc        1 MOL      0.084244
      6 H3          0.0830    4.5860    5.9110 hc        1 MOL      0.084244
      7 N1         -1.1650    3.7630    3.8400 n         1 MOL     -0.599780
      8 C3         -1.9150    3.5290    2.6030 c3        1 MOL      0.075538
      9 C4         -2.0950    4.7700    1.7560 c         1 MOL      0.677777
     10 O2         -2.3750    5.8490    2.2740 o         1 MOL     -0.586171
     11 C5         -3.3050    3.0140    2.9600 c3        1 MOL     -0.343575
     12 C6         -4.0540    2.5060    1.7700 c         1 MOL      0.828144
     13 O3         -5.2660    2.4540    1.8930 o         1 MOL     -0.680180
     14 O4         -3.5040    2.1560    0.6700 o         1 MOL     -0.680180
     15 H4         -1.6860    3.7860    4.7000 hn        1 MOL      0.328812
     16 H5         -1.3910    2.7520    2.0470 h1        1 MOL      0.125629
     17 H6         -3.8550    3.7670    3.5260 hc        1 MOL      0.065478
     18 H7         -3.0490    2.1810    3.6130 hc        1 MOL      0.065478
     19 N2         -2.1000    4.6460    0.4250 n         1 MOL     -0.568501
     20 C7         -2.5650    5.6670   -0.4740 c3        1 MOL      0.285897
     21 C8         -3.4430    5.1720   -1.6200 c         1 MOL      0.506375
     22 O5         -3.7630    5.9180   -2.5320 o         1 MOL     -0.574538
     23 C9         -1.2760    6.5190   -0.7870 c3        1 MOL     -0.162505
     24 H8         -1.8750    3.7560    0.0090 hn        1 MOL      0.247979
     25 H9         -3.1900    6.3920    0.0560 h1        1 MOL      0.013806
     26 H10        -1.6010    7.1410   -1.6170 hc        1 MOL      0.030868
     27 H11        -1.0140    7.1570    0.0630 hc        1 MOL      0.030868
     28 H12        -0.3870    6.0700   -1.2240 hc        1 MOL      0.030868
     29 N3         -3.9480    3.9480   -1.5300 n         1 MOL     -0.405434
     30 C10        -4.8650    3.4650   -2.6020 c3        1 MOL      0.109546
     31 C11        -6.1200    2.7240   -2.0500 c         1 MOL      0.341219
     32 O6         -7.2270    2.7480   -2.7040 o         1 MOL     -0.582786
     33 C12        -4.1460    2.6160   -3.6060 c3        1 MOL     -0.157416
     34 C13        -3.4070    1.4530   -2.9340 c         1 MOL      0.725378
     35 O7         -3.9330    0.7250   -2.0520 o         1 MOL     -0.715000
     36 O8         -2.2520    1.2060   -3.3380 o         1 MOL     -0.715000
     37 H13        -3.8210    3.3920   -0.6960 hn        1 MOL      0.262146
     38 H14        -5.3090    4.2470   -3.2090 h1        1 MOL      0.064366
     39 H15        -3.4470    3.2310   -4.1790 hc        1 MOL      0.054290
     40 H16        -4.7570    2.1210   -4.3520 hc        1 MOL      0.054290
     41 N4         -6.1160    2.1040   -0.8620 n         1 MOL     -0.061560
     42 C14        -7.2480    1.2800   -0.4020 c3        1 MOL     -0.057771
     43 C15        -7.3410   -0.2110   -0.7440 c         1 MOL      0.352790
     44 O9         -8.4030   -0.8350   -0.6650 o         1 MOL     -0.582367
     45 H17        -5.3440    2.2600   -0.2310 hn        1 MOL      0.053503
     46 H18        -8.1750    1.8020   -0.6720 h1        1 MOL      0.077667
     47 H19        -7.3820    1.3580    0.6710 h1        1 MOL      0.077667
     48 N5         -6.2250   -0.7990   -1.2690 n         1 MOL      0.072021
     49 C16        -6.3250   -2.1130   -1.9470 c3        1 MOL     -0.051226
     50 C17        -6.3240   -3.3050   -0.9240 c         1 MOL      0.497465
     51 O10        -6.4750   -4.4530   -1.2880 o         1 MOL     -0.540934
     52 C18        -5.1910   -2.2640   -3.0230 c3        1 MOL     -0.217719
     53 C19        -3.8170   -2.3840   -2.4700 c         1 MOL      0.611752
     54 N6         -2.8540   -2.7390   -3.3440 n         1 MOL     -0.688467
     55 O11        -3.5210   -2.2110   -1.3120 o         1 MOL     -0.548602
     56 H20        -5.4080   -0.2070   -1.3810 hn        1 MOL      0.001594
     57 H21        -7.3120   -2.0710   -2.4010 h1        1 MOL      0.099609
     58 H22        -5.3400   -1.4270   -3.7090 hc        1 MOL      0.079498
     59 H23        -5.4220   -3.1860   -3.5710 hc        1 MOL      0.079498
     60 H24        -3.0840   -2.9940   -4.2880 hn        1 MOL      0.342616
     61 H25        -1.8820   -2.6480   -3.0690 hn        1 MOL      0.342616
     62 N7         -6.3320   -3.0260    0.3870 n         1 MOL     -0.299490
     63 C20        -6.3600   -4.0050    1.5340 c3        1 MOL     -0.296509
     64 C21        -4.9310   -4.5110    1.8250 c         1 MOL      0.522525
     65 O12        -4.7840   -5.3730    2.6790 o         1 MOL     -0.567927
     66 H26        -5.9790   -2.1380    0.6890 hn        1 MOL      0.242760
     67 H27        -6.9580   -4.8740    1.2690 h1        1 MOL      0.157397
     68 H28        -6.8070   -3.4540    2.3640 h1        1 MOL      0.157397
     69 N8         -3.8430   -4.0170    1.1460 n         1 MOL     -0.133649
     70 C22        -2.4070   -4.4160    1.3580 c3        1 MOL     -0.237066
     71 C23        -1.4060   -3.2770    1.5860 c         1 MOL      0.619426
     72 O13        -1.3730   -2.3600    0.7230 o         1 MOL     -0.578338
     73 C24        -2.0050   -5.4050    0.2080 c3        1 MOL      0.576064
     74 C25        -2.8250   -6.6800    0.2880 c3        1 MOL     -0.528731
     75 O14        -1.9420   -4.9330   -1.1280 oh        1 MOL     -0.579901
     76 H29        -3.9990   -3.1540    0.6540 hn        1 MOL      0.097542
     77 H30        -2.3250   -5.0330    2.2530 h1        1 MOL      0.083389
     78 H31        -0.9640   -5.6710    0.3960 h1        1 MOL     -0.058952
     79 H32        -1.6690   -4.0150   -1.0800 ho        1 MOL      0.323239
     80 H33        -3.7720   -6.5000   -0.2190 hc        1 MOL      0.134281
     81 H34        -2.3280   -7.4810   -0.2570 hc        1 MOL      0.134281
     82 H35        -2.9500   -6.8530    1.3530 hc        1 MOL      0.134281
     83 N9         -0.3850   -3.3490    2.4650 n         1 MOL     -0.519771
     84 C26         0.8580   -2.6600    2.2700 c3        1 MOL     -0.284250
     85 C27         1.4600   -3.1240    0.8940 c         1 MOL      0.661439
     86 O15         1.7100   -4.2700    0.6480 o         1 MOL     -0.583329
     87 C28         1.8290   -2.8120    3.4580 c3        1 MOL      0.333571
     88 C29         1.2500   -1.9770    4.5770 c3        1 MOL     -0.008435
     89 C30         3.3900   -2.5020    3.2500 c3        1 MOL     -0.333275
     90 C31         1.9380   -2.0410    5.9410 c3        1 MOL     -0.076072
     91 H36        -0.3600   -4.0780    3.1660 hn        1 MOL      0.319691
     92 H37         0.7360   -1.5800    2.2080 h1        1 MOL      0.104547
     93 H38         1.8640   -3.8570    3.7550 hc        1 MOL     -0.025283
     94 H39         0.2400   -2.3340    4.7830 hc        1 MOL      0.005574
     95 H40         1.2570   -0.9280    4.2810 hc        1 MOL      0.005574
     96 H41         3.6280   -2.2440    2.2160 hc        1 MOL      0.066615
     97 H42         3.6070   -1.5810    3.7980 hc        1 MOL      0.066615
     98 H43         3.9810   -3.3430    3.6190 hc        1 MOL      0.066615
     99 H44         2.8680   -1.4730    5.9270 hc        1 MOL      0.009577
    100 H45         1.3350   -1.6500    6.7710 hc        1 MOL      0.009577
    101 H46         2.1580   -3.0710    6.1860 hc        1 MOL      0.009577
    102 N10         1.7300   -2.1520    0.0330 n         1 MOL     -0.205234
    103 C32         2.6140   -2.2340   -1.2050 c3        1 MOL     -0.178829
    104 C33         4.0500   -1.7880   -0.8760 c         1 MOL      0.597331
    105 O16         4.2910   -1.0170    0.0680 o         1 MOL     -0.368396
    106 C34         2.0110   -1.2330   -2.2130 c3        1 MOL     -0.345960
    107 C35         0.5880   -1.6560   -2.5530 c         1 MOL      0.819915
    108 O17        -0.3560   -1.0220   -2.0070 o         1 MOL     -0.694266
    109 O18         0.3360   -2.3810   -3.5400 o         1 MOL     -0.694266
    110 H47         1.3120   -1.2680    0.2700 hn        1 MOL      0.143273
    111 H48         2.6420   -3.2240   -1.6360 h1        1 MOL      0.126107
    112 H49         2.5640   -1.1120   -3.1560 hc        1 MOL      0.127929
    113 H50         2.0040   -0.2390   -1.7690 hc        1 MOL      0.127929
    114 N11         5.1190   -2.0750   -1.7050 n         1 MOL     -0.797271
    115 C36         6.4540   -1.6180   -1.3230 c3        1 MOL      0.553371
    116 C37         6.5990   -0.0700   -1.2460 c         1 MOL      0.218985
    117 O19         7.1610    0.3190   -0.1720 o         1 MOL     -0.439878
    118 C38         7.6080   -2.2180   -2.1830 c3        1 MOL     -0.337856
    119 C39         8.9740   -1.6600   -1.7150 ca        1 MOL      0.171715
    120 C40         9.5560   -2.0680   -0.5410 ca        1 MOL     -0.235720
    121 C41         9.6910   -0.7570   -2.6000 ca        1 MOL     -0.235720
    122 C42        10.8630   -1.6360   -0.1480 ca        1 MOL     -0.017809
    123 C43        10.9840   -0.3880   -2.2290 ca        1 MOL     -0.017809
    124 C44        11.5800   -0.8140   -1.0190 ca        1 MOL     -0.224770
    125 H51         4.9180   -2.7090   -2.4750 hn        1 MOL      0.360592
    126 H52         6.6060   -2.0220   -0.3180 h1        1 MOL      0.008821
    127 H53         7.3660   -1.8390   -3.1760 hc        1 MOL      0.088540
    128 H54         7.5650   -3.3070   -2.2580 hc        1 MOL      0.088540
    129 H55         9.0060   -2.7710    0.0740 ha        1 MOL      0.130054
    130 H56         9.2920   -0.4680   -3.5580 ha        1 MOL      0.130054
    131 H57        11.2660   -1.9670    0.7990 ha        1 MOL      0.092566
    132 H58        11.5150    0.2310   -2.9320 ha        1 MOL      0.092566
    133 H59        12.5530   -0.4190   -0.7410 ha        1 MOL      0.127835
    134 N12         6.0130    0.7100   -2.1680 n         1 MOL     -0.021325
    135 C45         6.0120    2.1800   -1.9250 c3        1 MOL      0.045557
    136 C46         5.4480    2.7880   -0.5870 c         1 MOL      0.171960
    137 O20         5.9460    3.8500   -0.1750 o         1 MOL     -0.466243
    138 C47         5.2480    2.7230   -3.1150 c3        1 MOL      0.011121
    139 C48         5.6170    1.7870   -4.2830 c3        1 MOL     -0.295781
    140 C49         5.5490    0.4260   -3.5740 c3        1 MOL      0.006708
    141 H60         7.0580    2.4780   -1.9370 h1        1 MOL      0.061994
    142 H61         4.1710    2.6480   -2.9400 hc        1 MOL      0.050264
    143 H62         5.5780    3.7280   -3.3730 hc        1 MOL      0.050264
    144 H63         4.7710    1.8250   -4.9570 hc        1 MOL      0.105826
    145 H64         6.6070    2.0940   -4.6400 hc        1 MOL      0.105826
    146 H65         4.5130    0.0980   -3.5780 h1        1 MOL      0.044860
    147 H66         6.1300   -0.3940   -4.0060 h1        1 MOL      0.044860
    148 N13         4.5320    2.0400    0.0440 n         1 MOL      0.038295
    149 C50         3.9530    2.2490    1.4210 c3        1 MOL     -0.131294
    150 C51         4.8650    1.6500    2.5330 c         1 MOL      0.474314
    151 O21         4.9560    2.2270    3.6150 o         1 MOL     -0.566907
    152 C52         2.6110    1.5940    1.4430 c3        1 MOL     -0.028986
    153 C53         1.6710    2.1070    0.3210 c3        1 MOL     -0.004548
    154 C54         0.2570    1.4660    0.3630 c         1 MOL      0.384438
    155 O22         0.0520    0.3960    0.9800 o         1 MOL     -0.612633
    156 O23        -0.6420    1.9670   -0.3490 o         1 MOL     -0.612633
    157 H67         4.2600    1.1240   -0.2970 hn        1 MOL      0.040692
    158 H68         3.8730    3.3230    1.6370 h1        1 MOL      0.120393
    159 H69         2.1030    1.6790    2.4140 hc        1 MOL      0.051056
    160 H70         2.7320    0.5150    1.5620 hc        1 MOL      0.051056
    161 H71         2.1430    1.9500   -0.6430 hc        1 MOL      0.050950
    162 H72         1.5620    3.1920    0.2830 hc        1 MOL      0.050950
    163 N14         5.5460    0.5380    2.2610 n         1 MOL     -0.030502
    164 C55         6.5470   -0.0350    3.1590 c3        1 MOL     -0.160174
    165 H73         6.1240   -0.9010    3.6680 h1        1 MOL      0.064097
    166 H74         7.4190   -0.3440    2.5830 h1        1 MOL      0.064097
    167 H75         6.8440    0.7100    3.8970 h1        1 MOL      0.064097
    168 H76         5.4900    0.1580    1.3280 hn        1 MOL      0.038206
    169 Ca1        -2.1660   -0.1060   -0.5040 Ca        1 MOL      1.689003
    170 O24        -4.1480   -0.9210    1.5050 oh        1 MOL     -0.759592
    171 H77        -4.9270   -0.5950    1.9530 ho        1 MOL      0.374707
    172 H78        -3.4130   -0.6330    2.0600 ho        1 MOL      0.374707
    173 O25        -1.8740   -0.1310    2.6080 oh        1 MOL     -0.759592
    174 H79        -1.0010   -0.0910    2.2150 ho        1 MOL      0.374707
    175 H80        -1.7420    0.1970    3.5010 ho        1 MOL      0.374707
@<TRIPOS>BOND
     1    1    2 1   
     2    1    4 1   
     3    1    5 1   
     4    1    6 1   
     5    2    3 2   
     6    2    7 1   
     7    7    8 1   
     8    7   15 1   
     9    8    9 1   
    10    8   11 1   
    11    8   16 1   
    12    9   10 2   
    13    9   19 1   
    14   11   12 1   
    15   11   17 1   
    16   11   18 1   
    17   12   13 1   
    18   12   14 1   
    19   19   20 1   
    20   19   24 1   
    21   20   21 1   
    22   20   23 1   
    23   20   25 1   
    24   21   22 2   
    25   21   29 1   
    26   23   26 1   
    27   23   27 1   
    28   23   28 1   
    29   29   30 1   
    30   29   37 1   
    31   30   31 1   
    32   30   33 1   
    33   30   38 1   
    34   31   32 2   
    35   31   41 1   
    36   33   34 1   
    37   33   39 1   
    38   33   40 1   
    39   34   35 1   
    40   34   36 1   
    41   41   42 1   
    42   41   45 1   
    43   42   43 1   
    44   42   46 1   
    45   42   47 1   
    46   43   44 2   
    47   43   48 1   
    48   48   49 1   
    49   48   56 1   
    50   49   50 1   
    51   49   52 1   
    52   49   57 1   
    53   50   51 2   
    54   50   62 1   
    55   52   53 1   
    56   52   58 1   
    57   52   59 1   
    58   53   54 1   
    59   53   55 2   
    60   54   60 1   
    61   54   61 1   
    62   62   63 1   
    63   62   66 1   
    64   63   64 1   
    65   63   67 1   
    66   63   68 1   
    67   64   65 2   
    68   64   69 1   
    69   69   70 1   
    70   69   76 1   
    71   70   71 1   
    72   70   73 1   
    73   70   77 1   
    74   71   72 2   
    75   71   83 1   
    76   73   74 1   
    77   73   75 1   
    78   73   78 1   
    79   74   80 1   
    80   74   81 1   
    81   74   82 1   
    82   75   79 1   
    83   83   84 1   
    84   83   91 1   
    85   84   85 1   
    86   84   87 1   
    87   84   92 1   
    88   85   86 2   
    89   85  102 1   
    90   87   88 1   
    91   87   89 1   
    92   87   93 1   
    93   88   90 1   
    94   88   94 1   
    95   88   95 1   
    96   89   96 1   
    97   89   97 1   
    98   89   98 1   
    99   90   99 1   
   100   90  100 1   
   101   90  101 1   
   102  102  103 1   
   103  102  110 1   
   104  103  104 1   
   105  103  106 1   
   106  103  111 1   
   107  104  105 2   
   108  104  114 1   
   109  106  107 1   
   110  106  112 1   
   111  106  113 1   
   112  107  108 1   
   113  107  109 1   
   114  114  115 1   
   115  114  125 1   
   116  115  116 1   
   117  115  118 1   
   118  115  126 1   
   119  116  117 2   
   120  116  134 1   
   121  118  119 1   
   122  118  127 1   
   123  118  128 1   
   124  119  120 ar  
   125  119  121 ar  
   126  120  122 ar  
   127  120  129 1   
   128  121  123 ar  
   129  121  130 1   
   130  122  124 ar  
   131  122  131 1   
   132  123  124 ar  
   133  123  132 1   
   134  124  133 1   
   135  134  135 1   
   136  134  140 1   
   137  135  136 1   
   138  135  138 1   
   139  135  141 1   
   140  136  137 2   
   141  136  148 1   
   142  138  139 1   
   143  138  142 1   
   144  138  143 1   
   145  139  140 1   
   146  139  144 1   
   147  139  145 1   
   148  140  146 1   
   149  140  147 1   
   150  148  149 1   
   151  148  157 1   
   152  149  150 1   
   153  149  152 1   
   154  149  158 1   
   155  150  151 2   
   156  150  163 1   
   157  152  153 1   
   158  152  159 1   
   159  152  160 1   
   160  153  154 1   
   161  153  161 1   
   162  153  162 1   
   163  154  155 1   
   164  154  156 1   
   165  163  164 1   
   166  163  168 1   
   167  164  165 1   
   168  164  166 1   
   169  164  167 1   
   170  170  171 1   
   171  170  172 1   
   172  173  174 1   
   173  173  175 1   
@<TRIPOS>SUBSTRUCTURE
     1 MOL         1 TEMP              0 ****  ****    0 ROOT
