@<TRIPOS>MOLECULE
MOL
  189   185     1     0     0
SMALL
resp


@<TRIPOS>ATOM
      1 C1          0.2000    3.1350    5.0860 c3        1 MOL     -0.395049
      2 C2         -0.3600    2.5910    3.7690 c         1 MOL      0.524049
      3 O1          0.3470    2.6990    2.7690 o         1 MOL     -0.525392
      4 H1          0.6270    4.1240    4.9170 hc        1 MOL      0.105418
      5 H2         -0.6020    3.2070    5.8200 hc        1 MOL      0.105418
      6 H3          0.9760    2.4650    5.4560 hc        1 MOL      0.105418
      7 N1         -1.5720    2.1220    3.7440 n         1 MOL     -0.465748
      8 C3         -2.3990    1.8070    2.5230 c3        1 MOL      0.091081
      9 C4         -3.0610    2.9520    1.8220 c         1 MOL      0.555595
     10 O2         -4.2690    3.1170    1.8320 o         1 MOL     -0.451652
     11 C5         -3.2160    0.5670    2.7680 c3        1 MOL     -0.234296
     12 C6         -3.9530    0.0370    1.5540 c         1 MOL      0.724458
     13 O3         -3.3580    0.1340    0.4930 o         1 MOL     -0.682882
     14 O4         -5.1770   -0.2710    1.5930 o         1 MOL     -0.682882
     15 H4         -2.0650    2.0340    4.6150 hn        1 MOL      0.314545
     16 H5         -1.6660    1.5280    1.7570 h1        1 MOL      0.115772
     17 H6         -3.9540    0.7770    3.5430 hc        1 MOL      0.044686
     18 H7         -2.5810   -0.2890    3.0110 hc        1 MOL      0.044686
     19 N2         -2.2260    3.8330    1.2930 n         1 MOL     -0.541088
     20 C7         -2.6030    5.2120    0.8610 c3        1 MOL     -0.030406
     21 C8         -3.6620    5.1090   -0.2540 c         1 MOL      0.448556
     22 O5         -4.6450    5.8200   -0.1820 o         1 MOL     -0.537754
     23 C9         -1.3740    6.0720    0.5280 c3        1 MOL     -0.163824
     24 C10        -0.4590    6.2890    1.8090 c3        1 MOL      0.194178
     25 C11         0.5440    7.3760    1.4320 c3        1 MOL     -0.086961
     26 C12         1.2840    7.7320    2.7000 c3        1 MOL      0.103304
     27 N3          2.4000    8.6780    2.6090 n4        1 MOL     -0.299798
     28 H8         -1.2380    3.6300    1.3240 hn        1 MOL      0.336741
     29 H9         -3.0120    5.7100    1.7500 h1        1 MOL      0.113759
     30 H10        -1.7480    7.0790    0.2930 hc        1 MOL      0.063650
     31 H11        -0.7990    5.6200   -0.2710 hc        1 MOL      0.063650
     32 H12         0.1140    5.3880    2.0290 hc        1 MOL     -0.016976
     33 H13        -1.1200    6.6570    2.5870 hc        1 MOL     -0.016976
     34 H14        -0.0250    8.2440    1.0920 hc        1 MOL      0.021840
     35 H15         1.1670    7.0060    0.6200 hc        1 MOL      0.021840
     36 H16         1.5830    6.8170    3.2020 hx        1 MOL      0.061805
     37 H17         0.5560    8.2510    3.3330 hx        1 MOL      0.061805
     38 H18         2.0420    9.5430    2.2290 hn        1 MOL      0.289947
     39 H19         2.7520    8.8960    3.5260 hn        1 MOL      0.289947
     40 H20         3.1540    8.3550    2.0120 hn        1 MOL      0.289947
     41 N4         -3.4900    4.1880   -1.2070 n         1 MOL     -0.285166
     42 C13        -4.3770    3.9470   -2.3420 c3        1 MOL     -0.027164
     43 C14        -5.5420    3.0050   -2.0210 c         1 MOL      0.343925
     44 O6         -6.3880    2.8100   -2.9050 o         1 MOL     -0.480439
     45 C15        -3.5470    3.5660   -3.5850 c3        1 MOL     -0.340098
     46 C16        -2.5510    2.4770   -3.4050 c         1 MOL      0.841179
     47 O7         -1.3920    2.5360   -3.9290 o         1 MOL     -0.758240
     48 O8         -2.8470    1.4760   -2.6320 o         1 MOL     -0.758240
     49 H21        -2.7830    3.5100   -0.9490 hn        1 MOL      0.259573
     50 H22        -4.8280    4.9030   -2.6150 h1        1 MOL      0.132575
     51 H23        -2.9790    4.4380   -3.9330 hc        1 MOL      0.095053
     52 H24        -4.2830    3.1810   -4.2890 hc        1 MOL      0.095053
     53 N5         -5.7280    2.4070   -0.8060 n         1 MOL      0.063462
     54 C17        -6.9380    1.6570   -0.4260 c3        1 MOL     -0.357660
     55 C18        -7.2330    0.4130   -1.2600 c         1 MOL      0.791470
     56 O9         -8.2300    0.4440   -2.0080 o         1 MOL     -0.587857
     57 H25        -5.0390    2.5470   -0.0850 hn        1 MOL      0.100530
     58 H26        -7.7470    2.3610   -0.6340 h1        1 MOL      0.118526
     59 H27        -6.9410    1.3400    0.6190 h1        1 MOL      0.118526
     60 N6         -6.5010   -0.7220   -1.0440 n         1 MOL     -0.636199
     61 C19        -6.7570   -2.0810   -1.5540 c3        1 MOL      0.250509
     62 C20        -6.6240   -3.2100   -0.5740 c         1 MOL      0.452714
     63 O10        -6.7170   -4.3890   -0.8660 o         1 MOL     -0.562111
     64 C21        -5.8810   -2.3210   -2.8130 c3        1 MOL     -0.350480
     65 C22        -4.3670   -2.2280   -2.5870 c         1 MOL      0.944016
     66 O11        -3.8140   -2.9370   -1.6840 o         1 MOL     -0.755696
     67 O12        -3.6290   -1.5310   -3.2930 o         1 MOL     -0.755696
     68 H28        -5.7420   -0.5330   -0.4000 hn        1 MOL      0.131910
     69 H29        -7.7960   -2.2270   -1.8410 h1        1 MOL      0.059411
     70 H30        -6.1620   -1.5500   -3.5290 hc        1 MOL      0.082849
     71 H31        -6.1770   -3.2940   -3.2060 hc        1 MOL      0.082849
     72 N7         -6.2590   -2.7720    0.6080 n         1 MOL     -0.344442
     73 C23        -6.3450   -3.6430    1.8450 c3        1 MOL     -0.203452
     74 C24        -4.9240   -4.2590    2.1800 c         1 MOL      0.496964
     75 O13        -4.8860   -5.0420    3.1210 o         1 MOL     -0.544517
     76 H32        -6.0510   -1.7870    0.7260 hn        1 MOL      0.347159
     77 H33        -7.1220   -4.4010    1.7700 h1        1 MOL      0.129545
     78 H34        -6.7030   -2.9590    2.6170 h1        1 MOL      0.129545
     79 N8         -3.9080   -4.0400    1.3130 n         1 MOL     -0.169086
     80 C25        -2.5400   -4.6530    1.3670 c3        1 MOL     -0.222354
     81 C26        -1.3090   -3.6740    1.1430 c         1 MOL      0.667459
     82 O14        -1.4430   -2.5750    0.5340 o         1 MOL     -0.589182
     83 C27        -2.4500   -5.7140    0.3170 c3        1 MOL      0.462297
     84 C28        -3.5070   -6.8140    0.4150 c3        1 MOL     -0.551221
     85 O15        -2.6360   -5.2050   -0.9380 oh        1 MOL     -0.614178
     86 H35        -4.0220   -3.3740    0.5610 hn        1 MOL      0.165374
     87 H36        -2.4250   -5.1900    2.3140 h1        1 MOL      0.078214
     88 H37        -1.4800   -6.2030    0.3310 h1        1 MOL      0.000681
     89 H38        -3.4550   -4.7010   -0.9360 ho        1 MOL      0.408929
     90 H39        -3.6020   -7.1870    1.4320 hc        1 MOL      0.138829
     91 H40        -4.5130   -6.4870    0.1560 hc        1 MOL      0.138829
     92 H41        -3.3830   -7.6310   -0.2990 hc        1 MOL      0.138829
     93 N9         -0.1880   -4.1370    1.6010 n         1 MOL     -0.598544
     94 C29         1.0200   -3.3200    1.7900 c3        1 MOL      0.091888
     95 C30         2.1420   -3.8710    0.8930 c         1 MOL      0.548784
     96 O16         2.6630   -5.0180    0.9370 o         1 MOL     -0.568560
     97 C31         1.4090   -3.0820    3.2630 c3        1 MOL      0.009348
     98 C32         0.4480   -2.0070    3.7800 c3        1 MOL      0.158262
     99 C33         2.8760   -2.7770    3.4790 c3        1 MOL     -0.095337
    100 C34         0.6330   -1.7910    5.3230 c3        1 MOL     -0.437192
    101 H42        -0.1440   -5.0880    1.9510 hn        1 MOL      0.316933
    102 H43         0.7550   -2.3090    1.4650 h1        1 MOL     -0.006828
    103 H44         1.2160   -4.0230    3.7820 hc        1 MOL      0.025658
    104 H45        -0.5820   -2.2830    3.5820 hc        1 MOL      0.018900
    105 H46         0.5910   -1.1000    3.1860 hc        1 MOL      0.018900
    106 H47         3.4330   -3.6640    3.1950 hc        1 MOL      0.014716
    107 H48         3.1300   -1.8960    2.8800 hc        1 MOL      0.014716
    108 H49         2.9910   -2.5130    4.5270 hc        1 MOL      0.014716
    109 H50         1.1260   -0.8320    5.4890 hc        1 MOL      0.109393
    110 H51        -0.3830   -1.8240    5.7220 hc        1 MOL      0.109393
    111 H52         1.0490   -2.6980    5.7700 hc        1 MOL      0.109393
    112 N10         2.5330   -3.0470   -0.0670 n         1 MOL     -0.328337
    113 C35         3.6230   -3.2630   -1.0100 c3        1 MOL     -0.048449
    114 C36         5.0170   -2.9470   -0.3780 c         1 MOL      0.323057
    115 O17         5.0860   -2.4990    0.7130 o         1 MOL     -0.270101
    116 C37         3.4740   -2.3870   -2.2510 c3        1 MOL      0.250772
    117 C38         2.5120   -2.9820   -3.2230 c3        1 MOL     -0.407075
    118 O18         3.0780   -1.0790   -1.8690 oh        1 MOL     -0.582646
    119 H53         1.9500   -2.2170   -0.1210 hn        1 MOL      0.299608
    120 H54         3.5680   -4.3030   -1.3300 h1        1 MOL      0.097994
    121 H55         4.4480   -2.3570   -2.7410 h1        1 MOL      0.033256
    122 H56         2.1500   -1.0400   -1.6380 ho        1 MOL      0.331297
    123 H57         1.6100   -3.2310   -2.6700 hc        1 MOL      0.116653
    124 H58         2.1700   -2.2560   -3.9620 hc        1 MOL      0.116653
    125 H59         2.8640   -3.9290   -3.6370 hc        1 MOL      0.116653
    126 N11         6.1010   -3.3550   -1.0380 n         1 MOL     -0.349736
    127 C39         7.4170   -2.8640   -0.6390 c3        1 MOL     -0.066799
    128 C40         7.4050   -1.2970   -0.4770 c         1 MOL      0.436965
    129 O19         7.7080   -0.8400    0.5920 o         1 MOL     -0.444024
    130 C41         8.4150   -3.2290   -1.7060 c3        1 MOL      0.224639
    131 C42         8.7230   -4.6720   -1.7270 c3        1 MOL     -0.310821
    132 O20         8.0120   -2.9750   -3.0270 oh        1 MOL     -0.651744
    133 H60         5.9240   -3.9760   -1.8120 hn        1 MOL      0.290850
    134 H61         7.7300   -3.2600    0.3340 h1        1 MOL      0.135810
    135 H62         9.3180   -2.6560   -1.5400 h1        1 MOL      0.047900
    136 H63         8.6620   -3.3760   -3.6070 ho        1 MOL      0.436039
    137 H64         7.8340   -5.1550   -2.1410 hc        1 MOL      0.089511
    138 H65         9.4220   -4.9010   -2.5340 hc        1 MOL      0.089511
    139 H66         9.1020   -5.0970   -0.8050 hc        1 MOL      0.089511
    140 N12         7.0410   -0.5140   -1.5140 n         1 MOL     -0.360893
    141 C43         6.8450    0.9360   -1.4240 c3        1 MOL      0.089932
    142 C44         6.0880    1.2900   -0.1170 c         1 MOL      0.360475
    143 O21         6.5750    2.1710    0.6320 o         1 MOL     -0.513225
    144 C45         6.0800    1.5720   -2.6570 c3        1 MOL     -0.052797
    145 C46         5.7650    3.0510   -2.4460 c3        1 MOL      0.058249
    146 C47         6.2320    3.9540   -3.6610 c3        1 MOL      0.001853
    147 C48         5.9440    5.3970   -3.3110 c3        1 MOL     -0.009585
    148 N13         4.5710    5.7490   -3.1190 n4        1 MOL     -0.334570
    149 H67         6.8990   -0.9560   -2.4200 hn        1 MOL      0.263948
    150 H68         7.7740    1.5030   -1.3860 h1        1 MOL      0.054126
    151 H69         5.0910    1.1290   -2.6730 hc        1 MOL      0.018423
    152 H70         6.5570    1.3470   -3.6050 hc        1 MOL      0.018423
    153 H71         6.2900    3.3990   -1.5530 hc        1 MOL      0.007387
    154 H72         4.6920    3.2210   -2.3230 hc        1 MOL      0.007387
    155 H73         5.7340    3.6930   -4.5870 hc        1 MOL      0.038419
    156 H74         7.3100    3.8530   -3.7920 hc        1 MOL      0.038419
    157 H75         6.2980    5.9560   -4.1750 hx        1 MOL      0.081114
    158 H76         6.5080    5.7210   -2.4430 hx        1 MOL      0.081114
    159 H77         4.0540    5.4340   -3.9260 hn        1 MOL      0.316276
    160 H78         4.0310    5.2850   -2.3930 hn        1 MOL      0.316276
    161 H79         4.5580    6.7610   -3.1530 hn        1 MOL      0.316276
    162 N14         4.8510    0.8020    0.0640 n         1 MOL     -0.300397
    163 C49         4.0610    1.1830    1.3740 c3        1 MOL     -0.186984
    164 C50         4.6630    0.6650    2.7080 c         1 MOL      0.444887
    165 O22         4.4910    1.3090    3.7840 o         1 MOL     -0.587646
    166 C51         2.5790    0.7100    1.2490 c3        1 MOL     -0.097954
    167 C52         1.8140    1.4020    0.0460 c3        1 MOL     -0.237402
    168 C53         0.4990    0.6480   -0.2220 c         1 MOL      0.742740
    169 O23         0.5630   -0.5690   -0.5830 o         1 MOL     -0.703280
    170 O24        -0.5610    1.2510   -0.2180 o         1 MOL     -0.703280
    171 H80         4.5330    0.0870   -0.5650 hn        1 MOL      0.319975
    172 H81         4.1330    2.2500    1.5940 h1        1 MOL      0.128135
    173 H82         1.9890    0.8960    2.1550 hc        1 MOL      0.133015
    174 H83         2.5950   -0.3800    1.2190 hc        1 MOL      0.133015
    175 H84         2.3150    1.3140   -0.9200 hc        1 MOL      0.049312
    176 H85         1.6470    2.4190    0.3800 hc        1 MOL      0.049312
    177 N15         5.2970   -0.4820    2.7260 n         1 MOL      0.139404
    178 C54         6.0470   -1.0160    3.8330 c3        1 MOL     -0.225049
    179 H86         6.3730   -0.2000    4.4780 h1        1 MOL      0.082684
    180 H87         5.4180   -1.7000    4.4030 h1        1 MOL      0.082684
    181 H88         6.9190   -1.5510    3.4580 h1        1 MOL      0.082684
    182 H89         5.3660   -0.9550    1.8340 hn        1 MOL     -0.058727
    183 Ca1        -1.9460   -0.6050   -1.5450 Ca        1 MOL      1.735102
    184 O25        -0.4460    0.1440   -3.6690 oh        1 MOL     -0.819852
    185 O26        -0.9580   -3.0810   -2.6570 oh        1 MOL     -0.819852
    186 H90        -0.7120    1.0500   -3.8580 ho        1 MOL      0.391311
    187 H91        -1.1100   -3.7780   -2.0300 ho        1 MOL      0.391311
    188 H92        -0.0760   -0.1690   -4.5030 ho        1 MOL      0.391311
    189 H93        -1.3000   -3.4290   -3.4850 ho        1 MOL      0.391311
@<TRIPOS>BOND
     1    1    2 1   
     2    1    4 1   
     3    1    5 1   
     4    1    6 1   
     5    2    3 2   
     6    2    7 1   
     7    7    8 1   
     8    7   15 1   
     9    8    9 1   
    10    8   11 1   
    11    8   16 1   
    12    9   10 2   
    13    9   19 1   
    14   11   12 1   
    15   11   17 1   
    16   11   18 1   
    17   12   13 1   
    18   12   14 1   
    19   19   20 1   
    20   19   28 1   
    21   20   21 1   
    22   20   23 1   
    23   20   29 1   
    24   21   22 2   
    25   21   41 1   
    26   23   24 1   
    27   23   30 1   
    28   23   31 1   
    29   24   25 1   
    30   24   32 1   
    31   24   33 1   
    32   25   26 1   
    33   25   34 1   
    34   25   35 1   
    35   26   27 1   
    36   26   36 1   
    37   26   37 1   
    38   27   38 1   
    39   27   39 1   
    40   27   40 1   
    41   41   42 1   
    42   41   49 1   
    43   42   43 1   
    44   42   45 1   
    45   42   50 1   
    46   43   44 2   
    47   43   53 1   
    48   45   46 1   
    49   45   51 1   
    50   45   52 1   
    51   46   47 1   
    52   46   48 1   
    53   53   54 1   
    54   53   57 1   
    55   54   55 1   
    56   54   58 1   
    57   54   59 1   
    58   55   56 2   
    59   55   60 1   
    60   60   61 1   
    61   60   68 1   
    62   61   62 1   
    63   61   64 1   
    64   61   69 1   
    65   62   63 2   
    66   62   72 1   
    67   64   65 1   
    68   64   70 1   
    69   64   71 1   
    70   65   66 1   
    71   65   67 1   
    72   72   73 1   
    73   72   76 1   
    74   73   74 1   
    75   73   77 1   
    76   73   78 1   
    77   74   75 2   
    78   74   79 1   
    79   79   80 1   
    80   79   86 1   
    81   80   81 1   
    82   80   83 1   
    83   80   87 1   
    84   81   82 2   
    85   81   93 1   
    86   83   84 1   
    87   83   85 1   
    88   83   88 1   
    89   84   90 1   
    90   84   91 1   
    91   84   92 1   
    92   85   89 1   
    93   93   94 1   
    94   93  101 1   
    95   94   95 1   
    96   94   97 1   
    97   94  102 1   
    98   95   96 2   
    99   95  112 1   
   100   97   98 1   
   101   97   99 1   
   102   97  103 1   
   103   98  100 1   
   104   98  104 1   
   105   98  105 1   
   106   99  106 1   
   107   99  107 1   
   108   99  108 1   
   109  100  109 1   
   110  100  110 1   
   111  100  111 1   
   112  112  113 1   
   113  112  119 1   
   114  113  114 1   
   115  113  116 1   
   116  113  120 1   
   117  114  115 2   
   118  114  126 1   
   119  116  117 1   
   120  116  118 1   
   121  116  121 1   
   122  117  123 1   
   123  117  124 1   
   124  117  125 1   
   125  118  122 1   
   126  126  127 1   
   127  126  133 1   
   128  127  128 1   
   129  127  130 1   
   130  127  134 1   
   131  128  129 2   
   132  128  140 1   
   133  130  131 1   
   134  130  132 1   
   135  130  135 1   
   136  131  137 1   
   137  131  138 1   
   138  131  139 1   
   139  132  136 1   
   140  140  141 1   
   141  140  149 1   
   142  141  142 1   
   143  141  144 1   
   144  141  150 1   
   145  142  143 2   
   146  142  162 1   
   147  144  145 1   
   148  144  151 1   
   149  144  152 1   
   150  145  146 1   
   151  145  153 1   
   152  145  154 1   
   153  146  147 1   
   154  146  155 1   
   155  146  156 1   
   156  147  148 1   
   157  147  157 1   
   158  147  158 1   
   159  148  159 1   
   160  148  160 1   
   161  148  161 1   
   162  162  163 1   
   163  162  171 1   
   164  163  164 1   
   165  163  166 1   
   166  163  172 1   
   167  164  165 2   
   168  164  177 1   
   169  166  167 1   
   170  166  173 1   
   171  166  174 1   
   172  167  168 1   
   173  167  175 1   
   174  167  176 1   
   175  168  169 1   
   176  168  170 1   
   177  177  178 1   
   178  177  182 1   
   179  178  179 1   
   180  178  180 1   
   181  178  181 1   
   182  184  186 1   
   183  184  188 1   
   184  185  187 1   
   185  185  189 1   
@<TRIPOS>SUBSTRUCTURE
     1 MOL         1 TEMP              0 ****  ****    0 ROOT
