@<TRIPOS>MOLECULE
MOL
  189   185     1     0     0
SMALL
resp


@<TRIPOS>ATOM
      1 C1          0.4410   -3.0100    6.0940 c3        1 MOL     -0.515647
      2 C2          0.8200   -2.8300    4.6120 c         1 MOL      0.822233
      3 O1          0.9420   -1.7020    4.1240 o         1 MOL     -0.606956
      4 H1         -0.4070   -2.3670    6.3330 hc        1 MOL      0.133141
      5 H2          0.1710   -4.0490    6.2780 hc        1 MOL      0.133141
      6 H3          1.2890   -2.7370    6.7220 hc        1 MOL      0.133141
      7 N1          1.2080   -3.9740    3.9780 n         1 MOL     -0.724342
      8 C3          2.0100   -3.9070    2.7550 c3        1 MOL      0.450441
      9 C4          1.6750   -4.9360    1.6710 c         1 MOL      0.365803
     10 O2          1.8880   -6.1290    1.8200 o         1 MOL     -0.563297
     11 C5          3.4920   -3.7660    2.9720 c3        1 MOL     -0.273382
     12 C6          4.1500   -3.1830    1.7400 c         1 MOL      0.752300
     13 O3          3.5310   -2.4840    0.8560 o         1 MOL     -0.688590
     14 O4          5.3870   -3.2720    1.6110 o         1 MOL     -0.688590
     15 H4          1.2080   -4.8730    4.4450 hn        1 MOL      0.336034
     16 H5          1.6790   -2.9960    2.2690 h1        1 MOL     -0.110716
     17 H6          3.8960   -4.7370    3.2570 hc        1 MOL      0.048874
     18 H7          3.6590   -3.0050    3.7260 hc        1 MOL      0.048874
     19 N2          1.2780   -4.4110    0.4920 n         1 MOL     -0.189270
     20 C7          0.9360   -5.2920   -0.6120 c3        1 MOL     -0.000178
     21 C8          1.9340   -5.2240   -1.7200 c         1 MOL      0.541398
     22 O5          2.0620   -6.1950   -2.4810 o         1 MOL     -0.609745
     23 C9         -0.5150   -5.0400   -1.1560 c3        1 MOL      0.192459
     24 C10        -1.5220   -5.6660   -0.1520 c3        1 MOL      0.093684
     25 C11        -0.7950   -5.5910   -2.5670 c3        1 MOL     -0.111068
     26 C12        -2.9600   -5.3050   -0.3910 c3        1 MOL     -0.105990
     27 H8          1.1410   -3.4170    0.4060 hn        1 MOL      0.124554
     28 H9          0.9960   -6.3510   -0.3560 h1        1 MOL      0.042142
     29 H10        -0.7340   -3.9800   -1.2730 hc        1 MOL     -0.011199
     30 H11        -1.3260   -5.4910    0.8980 hc        1 MOL     -0.061076
     31 H12        -1.3890   -6.7500   -0.2780 hc        1 MOL     -0.061076
     32 H13        -0.4740   -6.6290   -2.6600 hc        1 MOL      0.022227
     33 H14        -1.8710   -5.6100   -2.7430 hc        1 MOL      0.022227
     34 H15        -0.4060   -4.9930   -3.3970 hc        1 MOL      0.022227
     35 H16        -3.0540   -4.2930   -0.7740 hc        1 MOL      0.036460
     36 H17        -3.4620   -6.0440   -1.0150 hc        1 MOL      0.036460
     37 H18        -3.3070   -5.4390    0.6340 hc        1 MOL      0.036460
     38 N3          2.6180   -4.1280   -1.9410 n         1 MOL     -0.357459
     39 C13         3.4480   -3.8160   -3.1400 c3        1 MOL      0.161039
     40 C14         4.8980   -3.4440   -2.8480 c         1 MOL      0.324209
     41 O6          5.7450   -3.6070   -3.7230 o         1 MOL     -0.540965
     42 C15         2.7340   -2.7590   -3.9880 c3        1 MOL     -0.355483
     43 C16         2.3200   -1.4990   -3.2510 c         1 MOL      0.796155
     44 O7          2.7520   -1.2170   -2.1260 o         1 MOL     -0.714128
     45 O8          1.4100   -0.7930   -3.7990 o         1 MOL     -0.714128
     46 H19         2.5960   -3.4480   -1.1920 hn        1 MOL      0.199179
     47 H20         3.5340   -4.7330   -3.7180 h1        1 MOL      0.064498
     48 H21         1.7950   -3.2300   -4.2690 hc        1 MOL      0.099958
     49 H22         3.2340   -2.4630   -4.9060 hc        1 MOL      0.099958
     50 N4          5.2310   -2.9010   -1.6820 n         1 MOL     -0.111885
     51 C17         6.5940   -2.4240   -1.4180 c3        1 MOL     -0.051447
     52 C18         7.0690   -1.0150   -1.8870 c         1 MOL      0.364827
     53 O9          8.2510   -0.7770   -2.1860 o         1 MOL     -0.596751
     54 H23         4.5920   -2.9320   -0.9100 hn        1 MOL      0.099628
     55 H24         7.3230   -3.0760   -1.9070 h1        1 MOL      0.069171
     56 H25         6.8420   -2.6020   -0.3790 h1        1 MOL      0.069171
     57 N5          6.1720   -0.1210   -2.0960 n         1 MOL      0.003578
     58 C19         6.5070    1.1550   -2.7390 c3        1 MOL     -0.005968
     59 C20         7.1050    2.2430   -1.7830 c         1 MOL      0.382396
     60 O10         7.7640    3.2020   -2.1690 o         1 MOL     -0.543199
     61 C21         5.2540    1.8280   -3.4330 c3        1 MOL     -0.360328
     62 C22         3.9730    1.9290   -2.5330 c         1 MOL      0.780500
     63 O11         3.9230    1.5610   -1.3240 o         1 MOL     -0.686820
     64 O12         2.9340    2.3390   -3.0110 o         1 MOL     -0.686820
     65 H26         5.2240   -0.3010   -1.8080 hn        1 MOL      0.097865
     66 H27         7.2640    1.0810   -3.5280 h1        1 MOL      0.097772
     67 H28         5.0430    1.3120   -4.3640 hc        1 MOL      0.100389
     68 H29         5.5690    2.8600   -3.6320 hc        1 MOL      0.100389
     69 N6          6.6950    2.0300   -0.5260 n         1 MOL     -0.133936
     70 C23         7.1350    2.9080    0.6020 c3        1 MOL     -0.040310
     71 C24         6.0070    3.6920    1.2730 c         1 MOL      0.480060
     72 O13         6.3120    4.5400    2.1010 o         1 MOL     -0.583379
     73 H30         6.1000    1.2270   -0.3450 hn        1 MOL      0.091603
     74 H31         7.8960    3.5830    0.1980 h1        1 MOL      0.057874
     75 H32         7.6760    2.2380    1.2710 h1        1 MOL      0.057874
     76 N7          4.7380    3.3800    0.9810 n         1 MOL     -0.238650
     77 C25         3.5820    4.0630    1.5770 c3        1 MOL     -0.031396
     78 C26         2.4280    3.1750    1.8060 c         1 MOL      0.512060
     79 O14         2.2840    2.2640    0.9620 o         1 MOL     -0.504986
     80 C27         3.1540    5.2650    0.7750 c3        1 MOL     -0.001120
     81 C28         4.1840    6.3520    0.4700 c3        1 MOL     -0.312576
     82 C29         3.4980    7.5200   -0.2710 c         1 MOL      0.642895
     83 N8          3.1440    7.4410   -1.5080 n         1 MOL     -0.743623
     84 O15         3.3310    8.5950    0.3070 o         1 MOL     -0.601461
     85 H33         4.4810    2.5860    0.4130 hn        1 MOL      0.138288
     86 H34         3.9130    4.4630    2.5320 h1        1 MOL      0.054206
     87 H35         2.3050    5.7010    1.3020 hc        1 MOL      0.055894
     88 H36         2.7250    4.8910   -0.1540 hc        1 MOL      0.055894
     89 H37         4.9390    5.9160   -0.1840 hc        1 MOL      0.131589
     90 H38         4.5850    6.6550    1.4410 hc        1 MOL      0.131589
     91 H39         3.0450    6.5950   -2.0380 hn        1 MOL      0.348490
     92 H40         2.6410    8.2510   -1.8510 hn        1 MOL      0.348490
     93 N9          1.5050    3.3550    2.7680 n         1 MOL     -0.528068
     94 C30         0.2300    2.5740    2.9420 c3        1 MOL      0.009242
     95 C31        -0.8160    3.0030    1.8920 c         1 MOL      0.666797
     96 O16        -1.1110    4.2010    1.8570 o         1 MOL     -0.639979
     97 C32        -0.4270    2.7630    4.2740 c3        1 MOL      0.249281
     98 C33        -1.7240    1.9270    4.4500 c3        1 MOL     -0.231967
     99 C34         0.5640    2.4460    5.4860 c3        1 MOL     -0.231967
    100 H41         1.7300    3.9870    3.5230 hn        1 MOL      0.289540
    101 H42         0.4970    1.5270    2.8270 h1        1 MOL      0.094404
    102 H43        -0.7590    3.8000    4.3750 hc        1 MOL     -0.028017
    103 H44        -2.4630    2.3290    3.7590 hc        1 MOL      0.046491
    104 H45        -1.5490    0.8490    4.3530 hc        1 MOL      0.046491
    105 H46        -2.1310    2.1340    5.4400 hc        1 MOL      0.046491
    106 H47         1.5080    2.9850    5.3830 hc        1 MOL      0.046491
    107 H48         0.1550    2.7640    6.4380 hc        1 MOL      0.046491
    108 H49         0.7840    1.3800    5.5360 hc        1 MOL      0.046491
    109 N10        -1.4670    2.1550    1.1160 n         1 MOL     -0.433118
    110 C35        -2.5630    2.4740    0.2820 c3        1 MOL      0.349636
    111 C36        -3.9370    2.1800    0.8970 c         1 MOL      0.207542
    112 O17        -4.1290    1.2110    1.6610 o         1 MOL     -0.493100
    113 C37        -2.4280    1.7830   -1.1100 c3        1 MOL     -0.077663
    114 C38        -3.4960    2.1770   -2.0940 c         1 MOL      0.633404
    115 N11        -3.4610    3.4150   -2.6230 n         1 MOL     -0.812748
    116 O18        -4.3680    1.3650   -2.3840 o         1 MOL     -0.528480
    117 H50        -1.2220    1.1760    1.1510 hn        1 MOL      0.249704
    118 H51        -2.5440    3.5380    0.0600 h1        1 MOL     -0.023211
    119 H52        -2.4340    0.6910   -1.0130 hc        1 MOL      0.043877
    120 H53        -1.4290    2.0720   -1.4460 hc        1 MOL      0.043877
    121 H54        -2.7710    4.1310   -2.4010 hn        1 MOL      0.370806
    122 H55        -4.0010    3.3930   -3.4740 hn        1 MOL      0.370806
    123 N12        -4.9870    2.9060    0.4400 n         1 MOL     -0.188387
    124 C39        -6.3710    2.5790    0.8500 c3        1 MOL      0.091941
    125 C40        -6.7070    1.1290    0.6530 c         1 MOL      0.356053
    126 O19        -7.6250    0.6160    1.3160 o         1 MOL     -0.566104
    127 C41        -7.3580    3.4680    0.1620 c3        1 MOL     -0.361787
    128 C42        -7.2790    3.3950   -1.3270 ca        1 MOL      0.161307
    129 C43        -7.8400    2.3090   -2.0290 ca        1 MOL     -0.237062
    130 C44        -6.5660    4.3900   -2.1080 ca        1 MOL     -0.237062
    131 C45        -7.9200    2.2810   -3.4330 ca        1 MOL     -0.253258
    132 C46        -6.6380    4.3980   -3.4900 ca        1 MOL     -0.253258
    133 C47        -7.2400    3.2730   -4.1330 ca        1 MOL      0.361760
    134 O20        -7.3400    3.2800   -5.4920 oh        1 MOL     -0.547267
    135 H56        -4.7820    3.6620   -0.1890 hn        1 MOL      0.153095
    136 H57        -6.3880    2.8020    1.9210 h1        1 MOL      0.087161
    137 H58        -7.1060    4.5040    0.3820 hc        1 MOL      0.119123
    138 H59        -8.3820    3.1840    0.3770 hc        1 MOL      0.119123
    139 H60        -8.3160    1.5230   -1.4540 ha        1 MOL      0.161275
    140 H61        -5.9640    5.1200   -1.6000 ha        1 MOL      0.161275
    141 H62        -8.4330    1.4820   -3.9410 ha        1 MOL      0.155703
    142 H63        -6.1990    5.1880   -4.0840 ha        1 MOL      0.155703
    143 H64        -7.6200    2.3740   -5.6640 ho        1 MOL      0.403905
    144 N13        -5.9940    0.3360   -0.2210 n         1 MOL      0.101490
    145 C48        -6.3000   -1.1040   -0.3370 c3        1 MOL     -0.112956
    146 C49        -5.4930   -1.9990    0.6860 c         1 MOL      0.396844
    147 O21        -5.8290   -3.1430    1.0910 o         1 MOL     -0.565738
    148 C50        -5.9220   -1.4840   -1.8000 c3        1 MOL     -0.013725
    149 C51        -6.5310   -2.8370   -2.0850 c3        1 MOL     -0.195587
    150 C52        -6.4580   -3.0570   -3.5590 c         1 MOL      0.727972
    151 O22        -5.3610   -3.3520   -4.0910 o         1 MOL     -0.759234
    152 O23        -7.5650   -3.0620   -4.1250 o         1 MOL     -0.759234
    153 H65        -5.3090    0.7910   -0.8010 hn        1 MOL      0.059289
    154 H66        -7.3420   -1.2490   -0.0130 h1        1 MOL      0.114903
    155 H67        -4.8430   -1.5040   -1.9620 hc        1 MOL      0.055364
    156 H68        -6.2990   -0.7820   -2.5480 hc        1 MOL      0.055364
    157 H69        -7.5340   -2.8350   -1.6530 hc        1 MOL      0.020304
    158 H70        -5.8600   -3.5870   -1.6540 hc        1 MOL      0.020304
    159 N14        -4.4730   -1.4400    1.2630 n         1 MOL     -0.225841
    160 C53        -3.6680   -1.9270    2.3680 c3        1 MOL     -0.225011
    161 C54        -4.3540   -1.5700    3.7440 c         1 MOL      0.527484
    162 O24        -3.9370   -2.1560    4.7450 o         1 MOL     -0.561972
    163 C55        -2.2630   -1.3560    2.3830 c3        1 MOL     -0.105011
    164 C56        -1.5490   -1.8330    1.0850 c3        1 MOL      0.000528
    165 C57        -0.2150   -1.1900    0.7870 c         1 MOL      0.717474
    166 O25         0.1790   -0.0740    1.1820 o         1 MOL     -0.743505
    167 O26         0.5610   -1.7880   -0.0480 o         1 MOL     -0.743505
    168 H71        -4.2150   -0.5130    0.9530 hn        1 MOL      0.167330
    169 H72        -3.5270   -3.0050    2.3380 h1        1 MOL      0.155130
    170 H73        -1.7460   -1.8110    3.2310 hc        1 MOL      0.073056
    171 H74        -2.2660   -0.2780    2.5020 hc        1 MOL      0.073056
    172 H75        -2.1400   -1.7220    0.1760 hc        1 MOL      0.065682
    173 H76        -1.3760   -2.9080    1.1640 hc        1 MOL      0.065682
    174 N15        -5.5180   -0.8550    3.7860 n         1 MOL     -0.206829
    175 C58        -6.2200   -0.5530    5.0240 c3        1 MOL     -0.056337
    176 H77        -6.1620    0.5170    5.2220 h1        1 MOL      0.039780
    177 H78        -7.2640   -0.8500    4.9320 h1        1 MOL      0.039780
    178 H79        -5.7580   -1.1000    5.8460 h1        1 MOL      0.039780
    179 H80        -5.8630   -0.4300    2.9370 hn        1 MOL      0.231658
    180 Ca1         2.5710   -0.2170    0.1800 Ca        1 MOL      1.828135
    181 O27         2.6830   -0.3070    2.8530 oh        1 MOL     -0.878835
    182 H81         3.2970   -0.1410    3.5680 ho        1 MOL      0.414665
    183 H82         1.9680   -0.7920    3.2660 ho        1 MOL      0.414665
    184 O28         5.2040   -0.2460    0.7630 oh        1 MOL     -0.878835
    185 H83         5.6790    0.1750    1.4910 ho        1 MOL      0.414665
    186 H84         5.4560   -1.1710    0.8250 ho        1 MOL      0.414665
    187 O29         0.9760    1.0500   -1.6500 oh        1 MOL     -0.878835
    188 H85         1.5710    1.7200   -2.0120 ho        1 MOL      0.414665
    189 H86         0.9310    0.3800   -2.3280 ho        1 MOL      0.414665
@<TRIPOS>BOND
     1    1    2 1   
     2    1    4 1   
     3    1    5 1   
     4    1    6 1   
     5    2    3 2   
     6    2    7 1   
     7    7    8 1   
     8    7   15 1   
     9    8    9 1   
    10    8   11 1   
    11    8   16 1   
    12    9   10 2   
    13    9   19 1   
    14   11   12 1   
    15   11   17 1   
    16   11   18 1   
    17   12   13 1   
    18   12   14 1   
    19   19   20 1   
    20   19   27 1   
    21   20   21 1   
    22   20   23 1   
    23   20   28 1   
    24   21   22 2   
    25   21   38 1   
    26   23   24 1   
    27   23   25 1   
    28   23   29 1   
    29   24   26 1   
    30   24   30 1   
    31   24   31 1   
    32   25   32 1   
    33   25   33 1   
    34   25   34 1   
    35   26   35 1   
    36   26   36 1   
    37   26   37 1   
    38   38   39 1   
    39   38   46 1   
    40   39   40 1   
    41   39   42 1   
    42   39   47 1   
    43   40   41 2   
    44   40   50 1   
    45   42   43 1   
    46   42   48 1   
    47   42   49 1   
    48   43   44 1   
    49   43   45 1   
    50   50   51 1   
    51   50   54 1   
    52   51   52 1   
    53   51   55 1   
    54   51   56 1   
    55   52   53 2   
    56   52   57 1   
    57   57   58 1   
    58   57   65 1   
    59   58   59 1   
    60   58   61 1   
    61   58   66 1   
    62   59   60 2   
    63   59   69 1   
    64   61   62 1   
    65   61   67 1   
    66   61   68 1   
    67   62   63 1   
    68   62   64 1   
    69   69   70 1   
    70   69   73 1   
    71   70   71 1   
    72   70   74 1   
    73   70   75 1   
    74   71   72 2   
    75   71   76 1   
    76   76   77 1   
    77   76   85 1   
    78   77   78 1   
    79   77   80 1   
    80   77   86 1   
    81   78   79 2   
    82   78   93 1   
    83   80   81 1   
    84   80   87 1   
    85   80   88 1   
    86   81   82 1   
    87   81   89 1   
    88   81   90 1   
    89   82   83 1   
    90   82   84 2   
    91   83   91 1   
    92   83   92 1   
    93   93   94 1   
    94   93  100 1   
    95   94   95 1   
    96   94   97 1   
    97   94  101 1   
    98   95   96 2   
    99   95  109 1   
   100   97   98 1   
   101   97   99 1   
   102   97  102 1   
   103   98  103 1   
   104   98  104 1   
   105   98  105 1   
   106   99  106 1   
   107   99  107 1   
   108   99  108 1   
   109  109  110 1   
   110  109  117 1   
   111  110  111 1   
   112  110  113 1   
   113  110  118 1   
   114  111  112 2   
   115  111  123 1   
   116  113  114 1   
   117  113  119 1   
   118  113  120 1   
   119  114  115 1   
   120  114  116 2   
   121  115  121 1   
   122  115  122 1   
   123  123  124 1   
   124  123  135 1   
   125  124  125 1   
   126  124  127 1   
   127  124  136 1   
   128  125  126 2   
   129  125  144 1   
   130  127  128 1   
   131  127  137 1   
   132  127  138 1   
   133  128  129 ar  
   134  128  130 ar  
   135  129  131 ar  
   136  129  139 1   
   137  130  132 ar  
   138  130  140 1   
   139  131  133 ar  
   140  131  141 1   
   141  132  133 ar  
   142  132  142 1   
   143  133  134 1   
   144  134  143 1   
   145  144  145 1   
   146  144  153 1   
   147  145  146 1   
   148  145  148 1   
   149  145  154 1   
   150  146  147 2   
   151  146  159 1   
   152  148  149 1   
   153  148  155 1   
   154  148  156 1   
   155  149  150 1   
   156  149  157 1   
   157  149  158 1   
   158  150  151 1   
   159  150  152 1   
   160  159  160 1   
   161  159  168 1   
   162  160  161 1   
   163  160  163 1   
   164  160  169 1   
   165  161  162 2   
   166  161  174 1   
   167  163  164 1   
   168  163  170 1   
   169  163  171 1   
   170  164  165 1   
   171  164  172 1   
   172  164  173 1   
   173  165  166 1   
   174  165  167 1   
   175  174  175 1   
   176  174  179 1   
   177  175  176 1   
   178  175  177 1   
   179  175  178 1   
   180  181  182 1   
   181  181  183 1   
   182  184  185 1   
   183  184  186 1   
   184  187  188 1   
   185  187  189 1   
@<TRIPOS>SUBSTRUCTURE
     1 MOL         1 TEMP              0 ****  ****    0 ROOT
