@<TRIPOS>MOLECULE
MOL
  189   185     1     0     0
SMALL
resp


@<TRIPOS>ATOM
      1 C1          0.8720    2.7740    4.9310 c3        1 MOL     -0.243197
      2 C2          0.1170    2.5190    3.6080 c         1 MOL      0.576107
      3 O1          0.5240    3.0990    2.6010 o         1 MOL     -0.570465
      4 H1          0.7110    3.8050    5.2480 hc        1 MOL      0.067852
      5 H2          0.5010    2.0950    5.6980 hc        1 MOL      0.067852
      6 H3          1.9380    2.6040    4.7800 hc        1 MOL      0.067852
      7 N1         -1.0410    1.8940    3.6500 n         1 MOL     -0.510980
      8 C3         -1.7920    1.6280    2.4290 c3        1 MOL      0.288777
      9 C4         -2.5660    2.8780    1.9960 c         1 MOL      0.043715
     10 O2         -3.5090    3.2880    2.7000 o         1 MOL     -0.518431
     11 C5         -2.7590    0.4810    2.5080 c3        1 MOL     -0.280844
     12 C6         -3.4850    0.2270    1.1820 c         1 MOL      0.828874
     13 O3         -2.8720    0.5730    0.1560 o         1 MOL     -0.735283
     14 O4         -4.6310   -0.2790    1.1910 o         1 MOL     -0.735283
     15 H4         -1.3120    1.4390    4.5060 hn        1 MOL      0.309140
     16 H5         -1.0710    1.3160    1.6770 h1        1 MOL      0.004868
     17 H6         -3.5610    0.6570    3.2330 hc        1 MOL      0.069858
     18 H7         -2.2030   -0.3590    2.9070 hc        1 MOL      0.069858
     19 N2         -2.1990    3.5220    0.9380 n         1 MOL      0.023088
     20 C7         -2.9040    4.6760    0.4020 c3        1 MOL     -0.032380
     21 C8         -4.1500    4.5040   -0.5150 c         1 MOL      0.492282
     22 O5         -4.6930    5.4720   -1.0890 o         1 MOL     -0.529320
     23 C9         -1.7760    5.4830   -0.2490 c3        1 MOL      0.150054
     24 C10        -0.7560    6.0930    0.7330 c3        1 MOL     -0.173919
     25 C11        -1.2400    6.8530    1.9620 c3        1 MOL     -0.012366
     26 C12        -1.4350    5.8560    3.1680 c3        1 MOL      0.045951
     27 N3         -2.0710    6.5380    4.2420 n4        1 MOL     -0.471079
     28 H8         -1.3750    3.1670    0.4780 hn        1 MOL      0.248398
     29 H9         -3.2610    5.2230    1.2760 h1        1 MOL      0.027694
     30 H10        -2.1780    6.3500   -0.7720 hc        1 MOL      0.004166
     31 H11        -1.2680    4.8720   -0.9970 hc        1 MOL      0.004166
     32 H12        -0.3120    6.9200    0.1770 hc        1 MOL      0.041306
     33 H13        -0.0430    5.3330    1.0430 hc        1 MOL      0.041306
     34 H14        -2.2210    7.2440    1.6810 hc        1 MOL      0.025121
     35 H15        -0.5860    7.6650    2.2490 hc        1 MOL      0.025121
     36 H16        -0.4570    5.5210    3.5160 hx        1 MOL      0.119616
     37 H17        -2.0850    5.0870    2.7760 hx        1 MOL      0.119616
     38 H18        -2.7800    7.1310    3.8450 hn        1 MOL      0.345131
     39 H19        -2.4970    5.8890    4.8830 hn        1 MOL      0.345131
     40 H20        -1.4870    7.1010    4.8430 hn        1 MOL      0.345131
     41 N4         -4.5380    3.2270   -0.7280 n         1 MOL     -0.447169
     42 C13        -5.4770    2.8440   -1.8020 c3        1 MOL     -0.014267
     43 C14        -6.6830    2.1770   -1.2540 c         1 MOL      0.521465
     44 O6         -7.6950    2.0780   -1.9960 o         1 MOL     -0.551452
     45 C15        -4.7930    1.9750   -2.8570 c3        1 MOL      0.006486
     46 C16        -3.3670    2.3270   -3.0640 c         1 MOL      0.623145
     47 O7         -2.4500    1.5460   -2.7410 o         1 MOL     -0.665616
     48 O8         -2.9950    3.4520   -3.4940 o         1 MOL     -0.665616
     49 H21        -3.9330    2.4950   -0.3860 hn        1 MOL      0.293399
     50 H22        -5.7540    3.7430   -2.3660 h1        1 MOL      0.121522
     51 H23        -5.3980    2.1630   -3.7410 hc        1 MOL      0.009085
     52 H24        -4.9350    0.9380   -2.5770 hc        1 MOL      0.009085
     53 N5         -6.6470    1.5300   -0.0590 n         1 MOL     -0.488807
     54 C17        -7.7290    0.7520    0.4200 c3        1 MOL     -0.039297
     55 C18        -7.8320   -0.6080   -0.2210 c         1 MOL      0.420575
     56 O9         -8.8680   -1.2420   -0.1040 o         1 MOL     -0.572135
     57 H25        -5.7280    1.4280    0.3490 hn        1 MOL      0.332422
     58 H26        -8.7030    1.2130    0.2730 h1        1 MOL      0.094300
     59 H27        -7.6840    0.6380    1.5080 h1        1 MOL      0.094300
     60 N6         -6.7730   -1.0410   -0.8990 n         1 MOL     -0.053753
     61 C19        -6.7210   -2.2980   -1.7120 c3        1 MOL     -0.198170
     62 C20        -6.4560   -3.5660   -0.7400 c         1 MOL      0.462691
     63 O10        -6.4300   -4.7010   -1.1440 o         1 MOL     -0.523565
     64 C21        -5.6830   -2.2770   -2.8710 c3        1 MOL     -0.109682
     65 C22        -4.2790   -1.8000   -2.4880 c         1 MOL      0.752730
     66 O11        -3.6930   -2.2420   -1.5090 o         1 MOL     -0.758723
     67 O12        -3.6160   -1.0790   -3.2290 o         1 MOL     -0.758723
     68 H28        -5.9180   -0.5200   -0.9600 hn        1 MOL      0.181094
     69 H29        -7.6900   -2.5130   -2.1770 h1        1 MOL      0.141827
     70 H30        -5.9750   -1.5000   -3.5640 hc        1 MOL      0.051900
     71 H31        -5.7050   -3.2860   -3.2990 hc        1 MOL      0.051900
     72 N7         -6.2420   -3.3260    0.5370 n         1 MOL     -0.234067
     73 C23        -5.9470   -4.3070    1.5720 c3        1 MOL     -0.214606
     74 C24        -4.4510   -4.7920    1.5470 c         1 MOL      0.597874
     75 O13        -4.2430   -5.8390    2.1630 o         1 MOL     -0.564451
     76 H32        -6.1720   -2.3340    0.7380 hn        1 MOL      0.244726
     77 H33        -6.6670   -5.1180    1.4570 h1        1 MOL      0.113691
     78 H34        -6.0560   -3.8340    2.5400 h1        1 MOL      0.113691
     79 N8         -3.4910   -4.1420    0.8930 n         1 MOL     -0.258838
     80 C25        -2.1420   -4.6110    0.7650 c3        1 MOL     -0.495866
     81 C26        -1.1230   -3.4690    0.9830 c         1 MOL      0.951540
     82 O14        -1.2730   -2.4810    0.3430 o         1 MOL     -0.721586
     83 C27        -1.9270   -5.3450   -0.5100 c3        1 MOL      0.591388
     84 C28        -2.4930   -6.7850   -0.6550 c3        1 MOL     -0.490841
     85 O15        -2.5330   -4.7430   -1.6010 oh        1 MOL     -0.695043
     86 H35        -3.6440   -3.1740    0.6500 hn        1 MOL      0.237588
     87 H36        -1.9660   -5.2920    1.5880 h1        1 MOL      0.134972
     88 H37        -0.8500   -5.3560   -0.6790 h1        1 MOL     -0.061472
     89 H38        -2.9950   -3.9370   -1.3420 ho        1 MOL      0.483601
     90 H39        -3.5620   -6.7030   -0.4820 hc        1 MOL      0.133602
     91 H40        -2.3020   -7.1380   -1.6640 hc        1 MOL      0.133602
     92 H41        -2.0530   -7.5270    0.0160 hc        1 MOL      0.133602
     93 N9         -0.0560   -3.7160    1.7670 n         1 MOL     -0.706077
     94 C29         1.1250   -2.8470    2.0060 c3        1 MOL     -0.015885
     95 C30         2.3190   -3.3660    1.1950 c         1 MOL      0.580469
     96 O16         2.6280   -4.5550    1.3540 o         1 MOL     -0.575791
     97 C31         1.3460   -2.6170    3.5460 c3        1 MOL      0.234946
     98 C32         0.1440   -1.9910    4.3190 c3        1 MOL      0.079138
     99 C33         2.5240   -1.6140    3.5720 c3        1 MOL     -0.390390
    100 C34         0.3220   -2.2680    5.8070 c3        1 MOL     -0.294886
    101 H42        -0.0210   -4.6350    2.1840 hn        1 MOL      0.332635
    102 H43         0.9330   -1.8760    1.5560 h1        1 MOL      0.110173
    103 H44         1.6860   -3.5270    4.0520 hc        1 MOL      0.019852
    104 H45        -0.8060   -2.3040    3.8900 hc        1 MOL     -0.014716
    105 H46         0.1800   -0.9350    4.0730 hc        1 MOL     -0.014716
    106 H47         2.7480   -1.4620    4.6220 hc        1 MOL      0.060549
    107 H48         3.3730   -2.0630    3.0560 hc        1 MOL      0.060549
    108 H49         2.3140   -0.6680    3.0650 hc        1 MOL      0.060549
    109 H50        -0.4770   -1.7920    6.3950 hc        1 MOL      0.076201
    110 H51         0.3970   -3.3360    5.9780 hc        1 MOL      0.076201
    111 H52         1.2820   -1.8550    6.1050 hc        1 MOL      0.076201
    112 N10         2.8930   -2.5460    0.3470 n         1 MOL     -0.224226
    113 C35         4.1500   -2.8520   -0.4700 c3        1 MOL     -0.098590
    114 C36         5.5100   -2.4160    0.1650 c         1 MOL      0.349404
    115 O17         5.4690   -1.6210    1.1070 o         1 MOL     -0.293303
    116 C37         3.9200   -2.0520   -1.7930 c3        1 MOL      0.194621
    117 C38         2.7940   -2.5750   -2.6460 c3        1 MOL     -0.573547
    118 O18         3.7770   -0.7110   -1.5310 oh        1 MOL     -0.463436
    119 H53         2.5120   -1.6290    0.2010 hn        1 MOL      0.206177
    120 H54         4.0520   -3.9100   -0.7320 h1        1 MOL      0.111361
    121 H55         4.8620   -2.0680   -2.3480 h1        1 MOL      0.039686
    122 H56         2.8190   -0.6160   -1.4970 ho        1 MOL      0.332117
    123 H57         3.1560   -3.5960   -2.7920 hc        1 MOL      0.166627
    124 H58         1.8500   -2.5700   -2.1000 hc        1 MOL      0.166627
    125 H59         2.6660   -2.0420   -3.5850 hc        1 MOL      0.166627
    126 N11         6.6650   -2.7500   -0.4540 n         1 MOL     -0.362357
    127 C39         7.9980   -2.1490   -0.1220 c3        1 MOL     -0.262214
    128 C40         8.0600   -0.6420   -0.5210 c         1 MOL      0.331261
    129 O19         8.8260    0.1110    0.1190 o         1 MOL     -0.457002
    130 C41         9.1620   -2.8650   -0.7500 c3        1 MOL      0.489129
    131 C42         9.1280   -4.2910   -0.3520 c3        1 MOL     -0.460376
    132 O20         9.1690   -2.8180   -2.1940 oh        1 MOL     -0.611321
    133 H60         6.5670   -3.4720   -1.1490 hn        1 MOL      0.295773
    134 H61         8.0690   -2.0810    0.9670 h1        1 MOL      0.182935
    135 H62        10.0840   -2.4260   -0.3580 h1        1 MOL      0.015298
    136 H63         9.5870   -2.0130   -2.5020 ho        1 MOL      0.379321
    137 H64         8.4960   -4.8140   -1.0710 hc        1 MOL      0.128156
    138 H65        10.0850   -4.7980   -0.2600 hc        1 MOL      0.128156
    139 H66         8.7910   -4.3530    0.6830 hc        1 MOL      0.128156
    140 N12         7.2830   -0.1160   -1.4810 n         1 MOL     -0.181185
    141 C43         7.0790    1.3540   -1.6980 c3        1 MOL     -0.168687
    142 C44         6.4490    1.9280   -0.4630 c         1 MOL      0.341640
    143 O21         7.0110    2.8300    0.1220 o         1 MOL     -0.463625
    144 C45         6.2320    1.4940   -2.9400 c3        1 MOL      0.006079
    145 C46         5.7900    2.9720   -3.1950 c3        1 MOL     -0.043305
    146 C47         4.8780    3.0200   -4.4200 c3        1 MOL     -0.038657
    147 C48         4.3680    4.4400   -4.7430 c3        1 MOL      0.104994
    148 N13         3.4750    4.4580   -5.9780 n4        1 MOL     -0.386714
    149 H67         6.8230   -0.7290   -2.1450 hn        1 MOL      0.194833
    150 H68         8.0400    1.8510   -1.8730 h1        1 MOL      0.138868
    151 H69         5.3230    0.9030   -2.8450 hc        1 MOL      0.028700
    152 H70         6.7430    1.1430   -3.8320 hc        1 MOL      0.028700
    153 H71         6.6220    3.6580   -3.3180 hc        1 MOL      0.037049
    154 H72         5.1590    3.3130   -2.3770 hc        1 MOL      0.037049
    155 H73         3.9840    2.4380   -4.2170 hc        1 MOL      0.024724
    156 H74         5.3320    2.5670   -5.3060 hc        1 MOL      0.024724
    157 H75         5.2080    5.1150   -4.8760 hx        1 MOL      0.072036
    158 H76         3.8940    4.8720   -3.8620 hx        1 MOL      0.072036
    159 H77         3.8230    4.0340   -6.8210 hn        1 MOL      0.308940
    160 H78         2.6060    3.9660   -5.7950 hn        1 MOL      0.308940
    161 H79         3.2210    5.4170   -6.1550 hn        1 MOL      0.308940
    162 N14         5.2450    1.4140   -0.0100 n         1 MOL      0.137393
    163 C49         4.4380    2.0140    1.1260 c3        1 MOL     -0.422134
    164 C50         5.0710    1.8350    2.4910 c         1 MOL      0.480175
    165 O22         5.1570    2.7750    3.2920 o         1 MOL     -0.529884
    166 C51         3.0230    1.4670    1.0140 c3        1 MOL      0.110568
    167 C52         2.2140    1.8100   -0.2100 c3        1 MOL     -0.275820
    168 C53         0.9430    0.9790   -0.4390 c         1 MOL      0.861299
    169 O23         1.0770   -0.2580   -0.5260 o         1 MOL     -0.792668
    170 O24        -0.1370    1.4730   -0.7560 o         1 MOL     -0.792668
    171 H80         4.9560    0.5810   -0.5070 hn        1 MOL      0.100941
    172 H81         4.4280    3.0970    0.9850 h1        1 MOL      0.151999
    173 H82         2.5280    1.7910    1.9370 hc        1 MOL      0.063896
    174 H83         2.9700    0.3950    1.2030 hc        1 MOL      0.063896
    175 H84         2.7040    1.7530   -1.1850 hc        1 MOL      0.048218
    176 H85         1.9150    2.8450   -0.0430 hc        1 MOL      0.048218
    177 N15         5.6950    0.6500    2.8090 n         1 MOL     -0.076212
    178 C54         6.6140    0.4940    3.9200 c3        1 MOL     -0.252210
    179 H86         7.2570   -0.3680    3.7400 h1        1 MOL      0.096466
    180 H87         7.2280    1.3900    4.0150 h1        1 MOL      0.096466
    181 H88         6.0510    0.3400    4.8400 h1        1 MOL      0.096466
    182 H89         5.6450   -0.1610    2.2150 hn        1 MOL      0.105194
    183 Ca1        -1.4330   -0.5590   -1.5500 Ca        1 MOL      1.776692
    184 O25        -0.5580   -2.9330   -2.6970 oh        1 MOL     -0.826540
    185 H90        -0.2450   -3.0820   -3.5890 ho        1 MOL      0.400527
    186 H91        -1.1270   -3.6740   -2.5150 ho        1 MOL      0.400527
    187 O26        -0.3260   -0.0930   -3.8400 oh        1 MOL     -0.826540
    188 H92         0.0970   -0.4090   -4.6320 ho        1 MOL      0.400527
    189 H93        -0.5390    0.8180   -4.0190 ho        1 MOL      0.400527
@<TRIPOS>BOND
     1    1    2 1   
     2    1    4 1   
     3    1    5 1   
     4    1    6 1   
     5    2    3 2   
     6    2    7 1   
     7    7    8 1   
     8    7   15 1   
     9    8    9 1   
    10    8   11 1   
    11    8   16 1   
    12    9   10 2   
    13    9   19 1   
    14   11   12 1   
    15   11   17 1   
    16   11   18 1   
    17   12   13 1   
    18   12   14 1   
    19   19   20 1   
    20   19   28 1   
    21   20   21 1   
    22   20   23 1   
    23   20   29 1   
    24   21   22 2   
    25   21   41 1   
    26   23   24 1   
    27   23   30 1   
    28   23   31 1   
    29   24   25 1   
    30   24   32 1   
    31   24   33 1   
    32   25   26 1   
    33   25   34 1   
    34   25   35 1   
    35   26   27 1   
    36   26   36 1   
    37   26   37 1   
    38   27   38 1   
    39   27   39 1   
    40   27   40 1   
    41   41   42 1   
    42   41   49 1   
    43   42   43 1   
    44   42   45 1   
    45   42   50 1   
    46   43   44 2   
    47   43   53 1   
    48   45   46 1   
    49   45   51 1   
    50   45   52 1   
    51   46   47 1   
    52   46   48 1   
    53   53   54 1   
    54   53   57 1   
    55   54   55 1   
    56   54   58 1   
    57   54   59 1   
    58   55   56 2   
    59   55   60 1   
    60   60   61 1   
    61   60   68 1   
    62   61   62 1   
    63   61   64 1   
    64   61   69 1   
    65   62   63 2   
    66   62   72 1   
    67   64   65 1   
    68   64   70 1   
    69   64   71 1   
    70   65   66 1   
    71   65   67 1   
    72   72   73 1   
    73   72   76 1   
    74   73   74 1   
    75   73   77 1   
    76   73   78 1   
    77   74   75 2   
    78   74   79 1   
    79   79   80 1   
    80   79   86 1   
    81   80   81 1   
    82   80   83 1   
    83   80   87 1   
    84   81   82 2   
    85   81   93 1   
    86   83   84 1   
    87   83   85 1   
    88   83   88 1   
    89   84   90 1   
    90   84   91 1   
    91   84   92 1   
    92   85   89 1   
    93   93   94 1   
    94   93  101 1   
    95   94   95 1   
    96   94   97 1   
    97   94  102 1   
    98   95   96 2   
    99   95  112 1   
   100   97   98 1   
   101   97   99 1   
   102   97  103 1   
   103   98  100 1   
   104   98  104 1   
   105   98  105 1   
   106   99  106 1   
   107   99  107 1   
   108   99  108 1   
   109  100  109 1   
   110  100  110 1   
   111  100  111 1   
   112  112  113 1   
   113  112  119 1   
   114  113  114 1   
   115  113  116 1   
   116  113  120 1   
   117  114  115 2   
   118  114  126 1   
   119  116  117 1   
   120  116  118 1   
   121  116  121 1   
   122  117  123 1   
   123  117  124 1   
   124  117  125 1   
   125  118  122 1   
   126  126  127 1   
   127  126  133 1   
   128  127  128 1   
   129  127  130 1   
   130  127  134 1   
   131  128  129 2   
   132  128  140 1   
   133  130  131 1   
   134  130  132 1   
   135  130  135 1   
   136  131  137 1   
   137  131  138 1   
   138  131  139 1   
   139  132  136 1   
   140  140  141 1   
   141  140  149 1   
   142  141  142 1   
   143  141  144 1   
   144  141  150 1   
   145  142  143 2   
   146  142  162 1   
   147  144  145 1   
   148  144  151 1   
   149  144  152 1   
   150  145  146 1   
   151  145  153 1   
   152  145  154 1   
   153  146  147 1   
   154  146  155 1   
   155  146  156 1   
   156  147  148 1   
   157  147  157 1   
   158  147  158 1   
   159  148  159 1   
   160  148  160 1   
   161  148  161 1   
   162  162  163 1   
   163  162  171 1   
   164  163  164 1   
   165  163  166 1   
   166  163  172 1   
   167  164  165 2   
   168  164  177 1   
   169  166  167 1   
   170  166  173 1   
   171  166  174 1   
   172  167  168 1   
   173  167  175 1   
   174  167  176 1   
   175  168  169 1   
   176  168  170 1   
   177  177  178 1   
   178  177  182 1   
   179  178  179 1   
   180  178  180 1   
   181  178  181 1   
   182  184  185 1   
   183  184  186 1   
   184  187  188 1   
   185  187  189 1   
@<TRIPOS>SUBSTRUCTURE
     1 MOL         1 TEMP              0 ****  ****    0 ROOT
