@<TRIPOS>MOLECULE
MOL
  189   185     1     0     0
SMALL
resp


@<TRIPOS>ATOM
      1 C1          0.0350    1.1300    6.2690 c3        1 MOL     -0.335982
      2 C2         -0.4480    1.1890    4.7940 c         1 MOL      0.696324
      3 O1          0.4080    1.5250    3.9890 o         1 MOL     -0.621150
      4 H1          0.3550    2.1220    6.5860 hc        1 MOL      0.087699
      5 H2         -0.7810    0.7910    6.9060 hc        1 MOL      0.087699
      6 H3          0.8720    0.4360    6.3500 hc        1 MOL      0.087699
      7 N1         -1.6660    0.8390    4.3780 n         1 MOL     -0.601291
      8 C3         -2.2090    0.8660    3.0240 c3        1 MOL      0.110018
      9 C4         -2.4580    2.3570    2.7390 c         1 MOL      0.499277
     10 O2         -3.4520    2.9630    3.2160 o         1 MOL     -0.543836
     11 C5         -3.4940    0.0310    2.8910 c3        1 MOL     -0.287749
     12 C6         -4.1160    0.0410    1.5210 c         1 MOL      0.927189
     13 O3         -3.4750    0.5230    0.5900 o         1 MOL     -0.767974
     14 O4         -5.2650   -0.4240    1.3580 o         1 MOL     -0.767974
     15 H4         -2.2420    0.6230    5.1690 hn        1 MOL      0.328020
     16 H5         -1.4740    0.4470    2.3480 h1        1 MOL      0.136707
     17 H6         -4.1830    0.1990    3.7120 hc        1 MOL      0.071869
     18 H7         -3.1650   -1.0050    3.0410 hc        1 MOL      0.071869
     19 N2         -1.5960    2.8680    1.8870 n         1 MOL     -0.178836
     20 C7         -1.4790    4.2920    1.5870 c3        1 MOL     -0.100822
     21 C8         -2.6680    4.7350    0.7910 c         1 MOL      0.604560
     22 O5         -3.2250    5.7950    1.0160 o         1 MOL     -0.575726
     23 C9         -0.1650    4.5620    0.7710 c3        1 MOL      0.255009
     24 C10         0.1610    6.0720    0.5780 c3        1 MOL     -0.286590
     25 C11         0.0490    6.9080    1.8640 c3        1 MOL      0.211594
     26 C12         0.9020    8.1260    1.7460 c3        1 MOL     -0.196205
     27 N3          1.0240    8.9580    2.9430 n4        1 MOL     -0.408525
     28 H8         -0.9550    2.2000    1.4770 hn        1 MOL      0.163158
     29 H9         -1.4430    4.9230    2.4790 h1        1 MOL     -0.013047
     30 H10        -0.2630    4.2090   -0.2620 hc        1 MOL     -0.022329
     31 H11         0.6910    4.0800    1.2410 hc        1 MOL     -0.022329
     32 H12        -0.5160    6.5880   -0.1120 hc        1 MOL      0.070296
     33 H13         1.1830    6.2200    0.2420 hc        1 MOL      0.070296
     34 H14         0.3980    6.4650    2.7900 hc        1 MOL      0.022298
     35 H15        -0.9770    7.2550    2.0150 hc        1 MOL      0.022298
     36 H16         0.4160    8.6840    0.9460 hx        1 MOL      0.127338
     37 H17         1.9080    7.6950    1.6350 hx        1 MOL      0.127338
     38 H18         1.3480    9.8630    2.6280 hn        1 MOL      0.354948
     39 H19         0.1020    9.0420    3.3440 hn        1 MOL      0.354948
     40 H20         1.6410    8.5150    3.6070 hn        1 MOL      0.354948
     41 N4         -2.9470    3.9320   -0.3000 n         1 MOL     -0.371710
     42 C13        -3.7540    4.3550   -1.4590 c3        1 MOL     -0.032566
     43 C14        -5.1050    3.6000   -1.4750 c         1 MOL      0.460683
     44 O6         -5.9440    3.9540   -2.2980 o         1 MOL     -0.510929
     45 C15        -2.9530    4.2860   -2.7600 c3        1 MOL     -0.144108
     46 C16        -2.2440    3.0300   -2.9620 c         1 MOL      0.949069
     47 O7         -1.3170    2.9880   -3.7620 o         1 MOL     -0.771034
     48 O8         -2.5660    1.9380   -2.4300 o         1 MOL     -0.771034
     49 H21        -2.5250    3.0120   -0.2220 hn        1 MOL      0.094554
     50 H22        -3.9740    5.4120   -1.3100 h1        1 MOL      0.104962
     51 H23        -2.2480    5.1070   -2.8200 hc        1 MOL      0.028166
     52 H24        -3.6930    4.3680   -3.5560 hc        1 MOL      0.028166
     53 N5         -5.4110    2.7710   -0.4640 n         1 MOL     -0.099907
     54 C17        -6.7380    2.2100   -0.2120 c3        1 MOL     -0.415013
     55 C18        -7.1260    1.2270   -1.2490 c         1 MOL      0.791278
     56 O9         -7.8450    1.5770   -2.2020 o         1 MOL     -0.572548
     57 H25        -4.6520    2.3610    0.0640 hn        1 MOL      0.168373
     58 H26        -7.3560    3.1040   -0.2180 h1        1 MOL      0.136984
     59 H27        -6.8260    1.7100    0.7480 h1        1 MOL      0.136984
     60 N6         -6.7860   -0.0490   -1.0020 n         1 MOL     -0.619234
     61 C19        -7.0520   -1.1780   -1.9150 c3        1 MOL     -0.003662
     62 C20        -7.0750   -2.5330   -1.1770 c         1 MOL      0.428628
     63 O10        -7.3660   -3.5920   -1.7660 o         1 MOL     -0.515098
     64 C21        -6.0570   -1.1770   -3.0990 c3        1 MOL     -0.152933
     65 C22        -4.5050   -1.2780   -2.7490 c         1 MOL      0.621872
     66 O11        -3.7630   -0.6410   -3.5240 o         1 MOL     -0.650161
     67 O12        -4.1470   -1.9280   -1.8200 o         1 MOL     -0.650161
     68 H28        -6.2440   -0.2850   -0.1820 hn        1 MOL      0.298587
     69 H29        -8.0500   -1.0300   -2.3190 h1        1 MOL      0.096813
     70 H30        -6.1870   -0.2680   -3.6740 hc        1 MOL      0.067498
     71 H31        -6.2780   -1.9870   -3.7800 hc        1 MOL      0.067498
     72 N7         -6.7790   -2.6120    0.1370 n         1 MOL     -0.243327
     73 C23        -6.7150   -3.8140    0.8990 c3        1 MOL     -0.114486
     74 C24        -5.4350   -4.6330    0.8980 c         1 MOL      0.662969
     75 O13        -5.4890   -5.7830    1.3330 o         1 MOL     -0.611055
     76 H32        -6.7640   -1.7420    0.6580 hn        1 MOL      0.277021
     77 H33        -7.4810   -4.5220    0.6050 h1        1 MOL      0.068221
     78 H34        -6.9630   -3.5640    1.9320 h1        1 MOL      0.068221
     79 N8         -4.2980   -4.0650    0.5710 n         1 MOL     -0.487697
     80 C25        -2.9270   -4.6490    0.4030 c3        1 MOL     -0.072140
     81 C26        -1.8230   -3.6300    0.7460 c         1 MOL      0.609994
     82 O14        -1.9820   -2.4170    0.5180 o         1 MOL     -0.694297
     83 C27        -2.6710   -5.1270   -1.0360 c3        1 MOL      0.580096
     84 C28        -2.8730   -6.6070   -1.1820 c3        1 MOL     -0.432430
     85 O15        -3.6180   -4.6030   -1.9890 oh        1 MOL     -0.671820
     86 H35        -4.4280   -3.1130    0.2640 hn        1 MOL      0.278910
     87 H36        -2.7670   -5.5020    1.0650 h1        1 MOL      0.093736
     88 H37        -1.6480   -4.9390   -1.3570 h1        1 MOL     -0.075302
     89 H38        -3.6100   -3.6460   -1.9110 ho        1 MOL      0.494014
     90 H39        -3.8840   -6.8970   -0.9170 hc        1 MOL      0.098999
     91 H40        -2.6130   -6.9090   -2.2030 hc        1 MOL      0.098999
     92 H41        -2.2470   -7.0260   -0.3940 hc        1 MOL      0.098999
     93 N9         -0.6830   -4.0990    1.1670 n         1 MOL     -0.519820
     94 C29         0.5160   -3.3210    1.4000 c3        1 MOL      0.036326
     95 C30         1.5960   -3.9130    0.5540 c         1 MOL      0.442082
     96 O16         1.6570   -5.0970    0.3080 o         1 MOL     -0.546058
     97 C31         0.9860   -3.3170    2.9150 c3        1 MOL      0.238438
     98 C32        -0.1820   -3.4780    3.9270 c3        1 MOL     -0.014958
     99 C33         1.8750   -2.0990    3.1890 c3        1 MOL     -0.451652
    100 C34         0.3460   -3.7760    5.3360 c3        1 MOL     -0.223537
    101 H42        -0.6260   -5.0480    1.4790 hn        1 MOL      0.292467
    102 H43         0.3280   -2.3090    1.0150 h1        1 MOL      0.122190
    103 H44         1.6590   -4.1680    3.0040 hc        1 MOL     -0.010815
    104 H45        -0.7460   -4.3490    3.5860 hc        1 MOL      0.018783
    105 H46        -0.8640   -2.6320    3.8590 hc        1 MOL      0.018783
    106 H47         2.4140   -2.1780    4.1310 hc        1 MOL      0.098427
    107 H48         2.6520   -2.2380    2.4470 hc        1 MOL      0.098427
    108 H49         1.4050   -1.1300    2.9900 hc        1 MOL      0.098427
    109 H50         1.1210   -3.0950    5.6770 hc        1 MOL      0.059069
    110 H51        -0.5310   -3.7500    5.9790 hc        1 MOL      0.059069
    111 H52         0.7760   -4.7840    5.3200 hc        1 MOL      0.059069
    112 N10         2.4850   -3.0330    0.0540 n         1 MOL     -0.036072
    113 C35         3.6620   -3.2830   -0.9040 c3        1 MOL      0.001855
    114 C36         5.0070   -3.0650   -0.1820 c         1 MOL      0.304717
    115 O17         4.9400   -2.4950    0.8820 o         1 MOL     -0.385303
    116 C37         3.5340   -2.3560   -2.1350 c3        1 MOL      0.178306
    117 C38         2.2430   -2.6040   -2.9870 c3        1 MOL     -0.404997
    118 O18         3.4430   -0.9910   -1.7610 oh        1 MOL     -0.482953
    119 H53         2.4730   -2.0810    0.3970 hn        1 MOL     -0.001225
    120 H54         3.6890   -4.3000   -1.2770 h1        1 MOL      0.073296
    121 H55         4.4140   -2.4760   -2.7710 h1        1 MOL      0.035286
    122 H56         2.5120   -0.7940   -1.7080 ho        1 MOL      0.323895
    123 H57         1.3220   -2.6630   -2.4030 hc        1 MOL      0.119570
    124 H58         2.1510   -1.7880   -3.7090 hc        1 MOL      0.119570
    125 H59         2.3430   -3.5620   -3.4990 hc        1 MOL      0.119570
    126 N11         6.1390   -3.3280   -0.7840 n         1 MOL     -0.262561
    127 C39         7.3850   -2.7780   -0.2720 c3        1 MOL     -0.037664
    128 C40         7.6420   -1.2840   -0.4720 c         1 MOL      0.338004
    129 O19         8.6160   -0.7320    0.2110 o         1 MOL     -0.504702
    130 C41         8.6220   -3.6000   -0.8670 c3        1 MOL      0.386132
    131 C42         8.6800   -5.0180   -0.2650 c3        1 MOL     -0.272277
    132 O20         8.5280   -3.6840   -2.2280 oh        1 MOL     -0.663879
    133 H60         6.1840   -3.7830   -1.6790 hn        1 MOL      0.259520
    134 H61         7.5140   -3.0140    0.7890 h1        1 MOL      0.122960
    135 H62         9.5060   -3.1810   -0.3980 h1        1 MOL     -0.002926
    136 H63         9.1970   -4.2550   -2.6160 ho        1 MOL      0.434249
    137 H64         7.9090   -5.6800   -0.6640 hc        1 MOL      0.063086
    138 H65         9.6310   -5.4580   -0.5350 hc        1 MOL      0.063086
    139 H66         8.4830   -4.9690    0.8080 hc        1 MOL      0.063086
    140 N12         6.8020   -0.5710   -1.2050 n         1 MOL     -0.286378
    141 C43         6.7790    0.9070   -1.3260 c3        1 MOL      0.217166
    142 C44         6.0690    1.5190   -0.1100 c         1 MOL      0.132178
    143 O21         6.5280    2.4500    0.5610 o         1 MOL     -0.477990
    144 C45         6.2080    1.3120   -2.6160 c3        1 MOL     -0.310901
    145 C46         6.1760    2.8120   -2.8250 c3        1 MOL      0.183920
    146 C47         5.8250    3.0890   -4.3000 c3        1 MOL      0.035152
    147 C48         5.5520    4.5640   -4.5150 c3        1 MOL     -0.029146
    148 N13         6.7570    5.3320   -4.4760 n4        1 MOL     -0.349279
    149 H67         5.9910   -0.9880   -1.6390 hn        1 MOL      0.223432
    150 H68         7.7720    1.3570   -1.3060 h1        1 MOL      0.086913
    151 H69         5.1430    1.0780   -2.6020 hc        1 MOL      0.071976
    152 H70         6.8330    0.9840   -3.4440 hc        1 MOL      0.071976
    153 H71         7.1520    3.2070   -2.5370 hc        1 MOL     -0.023935
    154 H72         5.4100    3.3060   -2.2170 hc        1 MOL     -0.023935
    155 H73         4.9090    2.6060   -4.6640 hc        1 MOL      0.030880
    156 H74         6.6670    2.7910   -4.9170 hc        1 MOL      0.030880
    157 H75         4.8670    4.9190   -3.7500 hx        1 MOL      0.093889
    158 H76         5.1000    4.7010   -5.4960 hx        1 MOL      0.093889
    159 H77         7.5140    4.9650   -5.0460 hn        1 MOL      0.304154
    160 H78         6.5500    6.1900   -4.9720 hn        1 MOL      0.304154
    161 H79         6.9450    5.5610   -3.5080 hn        1 MOL      0.304154
    162 N14         4.9400    0.8900    0.2800 n         1 MOL      0.138651
    163 C49         4.0070    1.3700    1.2720 c3        1 MOL     -0.062438
    164 C50         4.4080    1.0000    2.6800 c         1 MOL      0.339621
    165 O22         4.2720    1.8610    3.4950 o         1 MOL     -0.514245
    166 C51         2.6470    0.8300    1.0630 c3        1 MOL      0.006264
    167 C52         1.8900    1.4350   -0.0550 c3        1 MOL     -0.028913
    168 C53         0.6020    0.6480   -0.2320 c         1 MOL      0.590335
    169 O23         0.5760   -0.4770   -0.7970 o         1 MOL     -0.699111
    170 O24        -0.4460    1.1580    0.1050 o         1 MOL     -0.699111
    171 H80         4.5740    0.1430   -0.2910 hn        1 MOL      0.044301
    172 H81         4.0300    2.4640    1.2880 h1        1 MOL      0.072184
    173 H82         2.0240    1.0710    1.9200 hc        1 MOL      0.106188
    174 H83         2.7090   -0.2550    0.9210 hc        1 MOL      0.106188
    175 H84         2.5430    1.3260   -0.9150 hc        1 MOL     -0.020448
    176 H85         1.7610    2.5240   -0.0390 hc        1 MOL     -0.020448
    177 N15         5.1640   -0.0990    2.8210 n         1 MOL      0.026440
    178 C54         5.9400   -0.3900    4.0210 c3        1 MOL     -0.313776
    179 H86         6.8220   -0.9710    3.7510 h1        1 MOL      0.115760
    180 H87         6.2510    0.5440    4.4890 h1        1 MOL      0.115760
    181 H88         5.3300   -0.9620    4.7190 h1        1 MOL      0.115760
    182 H89         5.1630   -0.7280    2.0370 hn        1 MOL      0.055580
    183 Ca1        -2.0240   -0.3230   -1.2790 Ca        1 MOL      1.751315
    184 O25        -1.3710   -2.5070   -2.9070 oh        1 MOL     -0.804844
    185 H90        -1.8350   -3.0720   -3.5280 ho        1 MOL      0.383414
    186 H91        -0.6300   -2.1610   -3.4090 ho        1 MOL      0.383414
    187 O26        -0.2990    0.2890   -3.4230 oh        1 MOL     -0.804844
    188 H92         0.5870    0.5430   -3.1690 ho        1 MOL      0.383414
    189 H93        -0.7320    1.1040   -3.6460 ho        1 MOL      0.383414
@<TRIPOS>BOND
     1    1    2 1   
     2    1    4 1   
     3    1    5 1   
     4    1    6 1   
     5    2    3 2   
     6    2    7 1   
     7    7    8 1   
     8    7   15 1   
     9    8    9 1   
    10    8   11 1   
    11    8   16 1   
    12    9   10 2   
    13    9   19 1   
    14   11   12 1   
    15   11   17 1   
    16   11   18 1   
    17   12   13 1   
    18   12   14 1   
    19   19   20 1   
    20   19   28 1   
    21   20   21 1   
    22   20   23 1   
    23   20   29 1   
    24   21   22 2   
    25   21   41 1   
    26   23   24 1   
    27   23   30 1   
    28   23   31 1   
    29   24   25 1   
    30   24   32 1   
    31   24   33 1   
    32   25   26 1   
    33   25   34 1   
    34   25   35 1   
    35   26   27 1   
    36   26   36 1   
    37   26   37 1   
    38   27   38 1   
    39   27   39 1   
    40   27   40 1   
    41   41   42 1   
    42   41   49 1   
    43   42   43 1   
    44   42   45 1   
    45   42   50 1   
    46   43   44 2   
    47   43   53 1   
    48   45   46 1   
    49   45   51 1   
    50   45   52 1   
    51   46   47 1   
    52   46   48 1   
    53   53   54 1   
    54   53   57 1   
    55   54   55 1   
    56   54   58 1   
    57   54   59 1   
    58   55   56 2   
    59   55   60 1   
    60   60   61 1   
    61   60   68 1   
    62   61   62 1   
    63   61   64 1   
    64   61   69 1   
    65   62   63 2   
    66   62   72 1   
    67   64   65 1   
    68   64   70 1   
    69   64   71 1   
    70   65   66 1   
    71   65   67 1   
    72   72   73 1   
    73   72   76 1   
    74   73   74 1   
    75   73   77 1   
    76   73   78 1   
    77   74   75 2   
    78   74   79 1   
    79   79   80 1   
    80   79   86 1   
    81   80   81 1   
    82   80   83 1   
    83   80   87 1   
    84   81   82 2   
    85   81   93 1   
    86   83   84 1   
    87   83   85 1   
    88   83   88 1   
    89   84   90 1   
    90   84   91 1   
    91   84   92 1   
    92   85   89 1   
    93   93   94 1   
    94   93  101 1   
    95   94   95 1   
    96   94   97 1   
    97   94  102 1   
    98   95   96 2   
    99   95  112 1   
   100   97   98 1   
   101   97   99 1   
   102   97  103 1   
   103   98  100 1   
   104   98  104 1   
   105   98  105 1   
   106   99  106 1   
   107   99  107 1   
   108   99  108 1   
   109  100  109 1   
   110  100  110 1   
   111  100  111 1   
   112  112  113 1   
   113  112  119 1   
   114  113  114 1   
   115  113  116 1   
   116  113  120 1   
   117  114  115 2   
   118  114  126 1   
   119  116  117 1   
   120  116  118 1   
   121  116  121 1   
   122  117  123 1   
   123  117  124 1   
   124  117  125 1   
   125  118  122 1   
   126  126  127 1   
   127  126  133 1   
   128  127  128 1   
   129  127  130 1   
   130  127  134 1   
   131  128  129 2   
   132  128  140 1   
   133  130  131 1   
   134  130  132 1   
   135  130  135 1   
   136  131  137 1   
   137  131  138 1   
   138  131  139 1   
   139  132  136 1   
   140  140  141 1   
   141  140  149 1   
   142  141  142 1   
   143  141  144 1   
   144  141  150 1   
   145  142  143 2   
   146  142  162 1   
   147  144  145 1   
   148  144  151 1   
   149  144  152 1   
   150  145  146 1   
   151  145  153 1   
   152  145  154 1   
   153  146  147 1   
   154  146  155 1   
   155  146  156 1   
   156  147  148 1   
   157  147  157 1   
   158  147  158 1   
   159  148  159 1   
   160  148  160 1   
   161  148  161 1   
   162  162  163 1   
   163  162  171 1   
   164  163  164 1   
   165  163  166 1   
   166  163  172 1   
   167  164  165 2   
   168  164  177 1   
   169  166  167 1   
   170  166  173 1   
   171  166  174 1   
   172  167  168 1   
   173  167  175 1   
   174  167  176 1   
   175  168  169 1   
   176  168  170 1   
   177  177  178 1   
   178  177  182 1   
   179  178  179 1   
   180  178  180 1   
   181  178  181 1   
   182  184  185 1   
   183  184  186 1   
   184  187  188 1   
   185  187  189 1   
@<TRIPOS>SUBSTRUCTURE
     1 MOL         1 TEMP              0 ****  ****    0 ROOT
