@<TRIPOS>MOLECULE
MOL
  172   171     1     0     0
SMALL
resp


@<TRIPOS>ATOM
      1 C1          0.6560    4.7030    5.4070 c3        1 MOL     -0.425435
      2 C2          0.2350    4.4040    4.0130 c         1 MOL      0.796539
      3 O1          1.0400    4.4510    3.1160 o         1 MOL     -0.591616
      4 H1          1.0210    3.7910    5.8800 hc        1 MOL      0.099994
      5 H2          1.4510    5.4470    5.3960 hc        1 MOL      0.099994
      6 H3         -0.1950    5.0880    5.9700 hc        1 MOL      0.099994
      7 N1         -1.0320    4.1530    3.7920 n         1 MOL     -0.629010
      8 C3         -1.6430    3.7400    2.5360 c3        1 MOL      0.205353
      9 C4         -1.7330    4.8060    1.3730 c         1 MOL      0.563962
     10 O2         -2.0520    5.9440    1.6620 o         1 MOL     -0.591786
     11 C5         -2.9890    3.0690    2.9050 c3        1 MOL     -0.297041
     12 C6         -3.7860    2.5910    1.6690 c         1 MOL      0.530373
     13 O3         -4.9850    2.8930    1.5740 o         1 MOL     -0.600838
     14 O4         -3.2130    1.9900    0.7090 o         1 MOL     -0.600838
     15 H4         -1.6230    3.9780    4.5860 hn        1 MOL      0.308235
     16 H5         -1.0240    2.9310    2.1640 h1        1 MOL      0.026140
     17 H6         -3.6620    3.8150    3.3300 hc        1 MOL      0.076927
     18 H7         -2.8080    2.3550    3.7140 hc        1 MOL      0.076927
     19 N2         -1.6190    4.3990    0.1270 n         1 MOL     -0.384846
     20 C7         -1.9680    5.3260   -0.9590 c3        1 MOL      0.370840
     21 C8         -3.3240    5.0630   -1.6300 c         1 MOL      0.467808
     22 O5         -3.7240    5.9300   -2.3610 o         1 MOL     -0.583077
     23 C9         -0.7950    5.6470   -1.9030 c3        1 MOL     -0.288029
     24 H8         -1.3750    3.4350   -0.0510 hn        1 MOL      0.227396
     25 H9         -2.1950    6.2960   -0.5030 h1        1 MOL     -0.005990
     26 H10        -0.8450    6.6460   -2.3370 hc        1 MOL      0.064230
     27 H11         0.0540    5.6670   -1.2200 hc        1 MOL      0.064230
     28 H12        -0.6270    4.9540   -2.7230 hc        1 MOL      0.064230
     29 N3         -3.9030    3.8580   -1.4830 n         1 MOL     -0.392754
     30 C10        -4.8110    3.3740   -2.5380 c3        1 MOL      0.036751
     31 C11        -6.0490    2.5890   -2.1630 c         1 MOL      0.366516
     32 O6         -6.8200    2.2520   -3.0760 o         1 MOL     -0.545398
     33 C12        -4.0110    2.5850   -3.4900 c3        1 MOL     -0.003473
     34 C13        -3.4320    1.2010   -3.1540 c         1 MOL      0.731443
     35 O7         -2.5500    0.7760   -3.9460 o         1 MOL     -0.704831
     36 O8         -3.7740    0.5810   -2.1450 o         1 MOL     -0.704831
     37 H13        -3.5980    3.2080   -0.7750 hn        1 MOL      0.213069
     38 H14        -5.2610    4.2330   -3.0500 h1        1 MOL      0.094792
     39 H15        -3.1830    3.1970   -3.8530 hc        1 MOL     -0.004278
     40 H16        -4.5770    2.4640   -4.4230 hc        1 MOL     -0.004278
     41 N4         -6.2500    2.2080   -0.8920 n         1 MOL     -0.175502
     42 C14        -7.4470    1.4480   -0.4390 c3        1 MOL     -0.185025
     43 C15        -7.5080   -0.0900   -0.9100 c         1 MOL      0.426660
     44 O9         -8.5920   -0.6880   -0.9230 o         1 MOL     -0.591212
     45 H17        -5.6480    2.6040   -0.1790 hn        1 MOL      0.196021
     46 H18        -8.3520    1.9740   -0.7390 h1        1 MOL      0.099378
     47 H19        -7.3630    1.5230    0.6490 h1        1 MOL      0.099378
     48 N5         -6.4250   -0.6180   -1.4440 n         1 MOL     -0.017709
     49 C16        -6.3560   -2.0100   -1.8880 c3        1 MOL     -0.051783
     50 C17        -6.2350   -3.1300   -0.7930 c         1 MOL      0.417672
     51 O10        -6.0370   -4.3300   -1.0550 o         1 MOL     -0.487139
     52 C18        -5.2750   -2.2760   -2.9260 c3        1 MOL     -0.263434
     53 C19        -3.8630   -2.4610   -2.2860 c         1 MOL      0.385691
     54 N6         -2.9660   -2.9400   -3.1320 n         1 MOL     -0.497085
     55 O11        -3.3670   -2.1380   -1.2270 o         1 MOL     -0.484214
     56 H20        -5.5830   -0.0570   -1.4860 hn        1 MOL      0.108804
     57 H21        -7.3070   -2.2900   -2.3320 h1        1 MOL      0.121258
     58 H22        -5.2620   -1.4030   -3.5740 hc        1 MOL      0.108756
     59 H23        -5.4530   -3.2130   -3.4490 hc        1 MOL      0.108756
     60 H24        -3.3270   -3.1880   -4.0420 hn        1 MOL      0.289370
     61 H25        -1.9610   -2.9130   -2.9950 hn        1 MOL      0.289370
     62 N7         -6.4460   -2.8000    0.4930 n         1 MOL     -0.328664
     63 C20        -6.3640   -3.7740    1.6010 c3        1 MOL     -0.231944
     64 C21        -5.0690   -4.4100    2.0100 c         1 MOL      0.505457
     65 O12        -5.0730   -5.2670    2.9400 o         1 MOL     -0.582397
     66 H26        -6.6010   -1.8180    0.6950 hn        1 MOL      0.268706
     67 H27        -7.0320   -4.6050    1.3670 h1        1 MOL      0.126119
     68 H28        -6.7770   -3.2790    2.4840 h1        1 MOL      0.126119
     69 N8         -3.9410   -4.0230    1.3280 n         1 MOL     -0.208711
     70 C22        -2.5440   -4.3670    1.6930 c3        1 MOL     -0.213502
     71 C23        -1.6250   -3.1880    1.8060 c         1 MOL      0.629658
     72 O13        -1.7740   -2.2580    1.0290 o         1 MOL     -0.551210
     73 C24        -1.9220   -5.4120    0.6730 c3        1 MOL      0.524409
     74 C25        -2.5120   -6.7820    0.7820 c3        1 MOL     -0.314687
     75 O14        -2.0320   -4.8200   -0.5710 oh        1 MOL     -0.612238
     76 H29        -4.0120   -3.4490    0.4990 hn        1 MOL      0.332157
     77 H30        -2.5680   -4.7480    2.7140 h1        1 MOL      0.069539
     78 H31        -0.8860   -5.4910    1.0120 h1        1 MOL     -0.053367
     79 H32        -1.5770   -3.9870   -0.5370 ho        1 MOL      0.371082
     80 H33        -1.9050   -7.6170    0.4490 hc        1 MOL      0.073817
     81 H34        -2.5740   -6.9720    1.8460 hc        1 MOL      0.073817
     82 H35        -3.4870   -6.6360    0.2940 hc        1 MOL      0.073817
     83 N9         -0.5500   -3.3120    2.6080 n         1 MOL     -0.678520
     84 C26         0.5770   -2.4660    2.4370 c3        1 MOL     -0.007947
     85 C27         1.2520   -2.9870    1.1550 c         1 MOL      0.381711
     86 O15         1.4710   -4.2150    0.9880 o         1 MOL     -0.548759
     87 C28         1.4120   -2.4610    3.7450 c3        1 MOL      0.329461
     88 C29         0.5250   -1.9210    4.9130 c3        1 MOL      0.004223
     89 C30         2.5830   -1.4720    3.6720 c3        1 MOL     -0.238914
     90 C31         1.1570   -1.8180    6.3790 c3        1 MOL     -0.223467
     91 H36        -0.5160   -4.1630    3.1460 hn        1 MOL      0.348525
     92 H37         0.2870   -1.4390    2.2410 h1        1 MOL      0.113790
     93 H38         1.8780   -3.4050    4.0090 hc        1 MOL     -0.044483
     94 H39        -0.2800   -2.6450    5.0630 hc        1 MOL      0.006059
     95 H40         0.1040   -0.9540    4.6630 hc        1 MOL      0.006059
     96 H41         3.2880   -1.6230    4.4930 hc        1 MOL      0.021970
     97 H42         3.1520   -1.7270    2.7760 hc        1 MOL      0.021970
     98 H43         2.2710   -0.4340    3.6810 hc        1 MOL      0.021970
     99 H44         1.9860   -1.1140    6.3350 hc        1 MOL      0.054414
    100 H45         0.4770   -1.4160    7.1200 hc        1 MOL      0.054414
    101 H46         1.4480   -2.8280    6.6620 hc        1 MOL      0.054414
    102 N10         1.6950   -2.0360    0.3060 n         1 MOL     -0.129656
    103 C32         2.4900   -2.2690   -0.9410 c3        1 MOL      0.065307
    104 C33         3.8550   -1.6600   -0.7940 c         1 MOL      0.478629
    105 O16         4.0480   -0.6700   -0.0970 o         1 MOL     -0.344319
    106 C34         1.8790   -1.6930   -2.2070 c3        1 MOL     -0.371232
    107 C35         0.3940   -2.0340   -2.4970 c         1 MOL      0.770354
    108 O17        -0.4840   -1.3570   -1.8800 o         1 MOL     -0.669614
    109 O18         0.0520   -2.8640   -3.3390 o         1 MOL     -0.669614
    110 H47         1.5260   -1.0740    0.5810 hn        1 MOL      0.202820
    111 H48         2.7030   -3.3390   -1.0060 h1        1 MOL      0.059498
    112 H49         2.5270   -1.9890   -3.0250 hc        1 MOL      0.090881
    113 H50         1.9910   -0.6090   -2.1210 hc        1 MOL      0.090881
    114 N11         4.9450   -2.1540   -1.4790 n         1 MOL     -0.694358
    115 C36         6.3350   -1.6540   -1.2420 c3        1 MOL      0.356277
    116 C37         6.5250   -0.1210   -1.0830 c         1 MOL      0.102925
    117 O19         7.0520    0.2720   -0.0410 o         1 MOL     -0.455166
    118 C38         7.2520   -2.3410   -2.2040 c3        1 MOL     -0.250667
    119 C39         8.6910   -2.1620   -1.8900 ca        1 MOL     -0.013004
    120 C40         9.4180   -1.0710   -2.4560 ca        1 MOL     -0.023285
    121 C41         9.4210   -3.0340   -1.0280 ca        1 MOL     -0.023285
    122 C42        10.8220   -1.0310   -2.3370 ca        1 MOL     -0.243632
    123 C43        10.8190   -2.9510   -0.8580 ca        1 MOL     -0.243632
    124 C44        11.4870   -1.8470   -1.4600 ca        1 MOL      0.009159
    125 H51         4.8020   -3.0040   -2.0050 hn        1 MOL      0.354492
    126 H52         6.7200   -2.0630   -0.3110 h1        1 MOL      0.069903
    127 H53         7.0280   -2.1640   -3.2560 hc        1 MOL      0.084570
    128 H54         7.1100   -3.4190   -2.1150 hc        1 MOL      0.084570
    129 H55         8.8330   -0.3630   -3.0170 ha        1 MOL      0.087278
    130 H56         8.9050   -3.8080   -0.4850 ha        1 MOL      0.087278
    131 H57        11.2690   -0.1450   -2.7710 ha        1 MOL      0.135153
    132 H58        11.3940   -3.5460   -0.1600 ha        1 MOL      0.135153
    133 H59        12.5170   -1.7150   -1.1640 ha        1 MOL      0.082392
    134 N12         6.0960    0.8330   -1.9590 n         1 MOL      0.130724
    135 C45         6.1700    2.2780   -1.7470 c3        1 MOL      0.050488
    136 C46         5.5470    2.8070   -0.4240 c         1 MOL      0.276356
    137 O20         5.9890    3.8190    0.1040 o         1 MOL     -0.491621
    138 C47         5.4800    2.8740   -2.9600 c3        1 MOL     -0.176829
    139 C48         5.8300    1.7870   -3.9870 c3        1 MOL     -0.055473
    140 C49         5.5010    0.5530   -3.2260 c3        1 MOL      0.023646
    141 H60         7.2180    2.5820   -1.7160 h1        1 MOL      0.051522
    142 H61         4.3920    2.8960   -2.9020 hc        1 MOL      0.089565
    143 H62         5.8780    3.8280   -3.2760 hc        1 MOL      0.089565
    144 H63         5.2250    1.7790   -4.9010 hc        1 MOL      0.020879
    145 H64         6.9040    1.6830   -4.1610 hc        1 MOL      0.020879
    146 H65         4.4390    0.3570   -3.0880 h1        1 MOL      0.026217
    147 H66         6.0480   -0.2770   -3.6790 h1        1 MOL      0.026217
    148 N13         4.5560    2.0670    0.1520 n         1 MOL     -0.062188
    149 C50         3.9200    2.3480    1.4450 c3        1 MOL     -0.176498
    150 C51         4.7940    1.8390    2.6300 c         1 MOL      0.507278
    151 O21         4.8970    2.5860    3.5750 o         1 MOL     -0.554809
    152 C52         2.5140    1.7720    1.3750 c3        1 MOL      0.024701
    153 C53         1.6440    2.3920    0.2600 c3        1 MOL     -0.014188
    154 C54         0.4410    1.4690    0.0600 c         1 MOL      0.772159
    155 O22        -0.4560    1.8360   -0.7180 o         1 MOL     -0.837391
    156 O23         0.1560    0.4840    0.7620 o         1 MOL     -0.837391
    157 H67         4.3860    1.1450   -0.2140 hn        1 MOL      0.087211
    158 H68         3.7030    3.4100    1.4980 h1        1 MOL      0.126991
    159 H69         2.0290    2.0630    2.3110 hc        1 MOL      0.047875
    160 H70         2.5990    0.6940    1.3800 hc        1 MOL      0.047875
    161 H71         2.1820    2.4420   -0.6780 hc        1 MOL     -0.000641
    162 H72         1.3520    3.3730    0.6190 hc        1 MOL     -0.000641
    163 N14         5.5260    0.7110    2.4660 n         1 MOL     -0.061476
    164 C55         6.5330    0.2500    3.3800 c3        1 MOL     -0.302974
    165 H73         6.0550   -0.2270    4.2360 h1        1 MOL      0.099021
    166 H74         7.1780   -0.4700    2.8770 h1        1 MOL      0.099021
    167 H75         7.1290    1.0970    3.7210 h1        1 MOL      0.099021
    168 H76         5.5130    0.2740    1.5570 hn        1 MOL      0.131774
    169 Ca1        -2.0560   -0.0970   -0.3720 Ca        1 MOL      1.718366
    170 O24        -4.1350   -0.8450    1.4970 oh        1 MOL     -0.965164
    171 H77        -4.9390   -0.3160    1.5700 ho        1 MOL      0.436801
    172 H78        -3.7430   -0.7990    2.3730 ho        1 MOL      0.436801
@<TRIPOS>BOND
     1    1    2 1   
     2    1    4 1   
     3    1    5 1   
     4    1    6 1   
     5    2    3 2   
     6    2    7 1   
     7    7    8 1   
     8    7   15 1   
     9    8    9 1   
    10    8   11 1   
    11    8   16 1   
    12    9   10 2   
    13    9   19 1   
    14   11   12 1   
    15   11   17 1   
    16   11   18 1   
    17   12   13 1   
    18   12   14 1   
    19   19   20 1   
    20   19   24 1   
    21   20   21 1   
    22   20   23 1   
    23   20   25 1   
    24   21   22 2   
    25   21   29 1   
    26   23   26 1   
    27   23   27 1   
    28   23   28 1   
    29   29   30 1   
    30   29   37 1   
    31   30   31 1   
    32   30   33 1   
    33   30   38 1   
    34   31   32 2   
    35   31   41 1   
    36   33   34 1   
    37   33   39 1   
    38   33   40 1   
    39   34   35 1   
    40   34   36 1   
    41   41   42 1   
    42   41   45 1   
    43   42   43 1   
    44   42   46 1   
    45   42   47 1   
    46   43   44 2   
    47   43   48 1   
    48   48   49 1   
    49   48   56 1   
    50   49   50 1   
    51   49   52 1   
    52   49   57 1   
    53   50   51 2   
    54   50   62 1   
    55   52   53 1   
    56   52   58 1   
    57   52   59 1   
    58   53   54 1   
    59   53   55 2   
    60   54   60 1   
    61   54   61 1   
    62   62   63 1   
    63   62   66 1   
    64   63   64 1   
    65   63   67 1   
    66   63   68 1   
    67   64   65 2   
    68   64   69 1   
    69   69   70 1   
    70   69   76 1   
    71   70   71 1   
    72   70   73 1   
    73   70   77 1   
    74   71   72 2   
    75   71   83 1   
    76   73   74 1   
    77   73   75 1   
    78   73   78 1   
    79   74   80 1   
    80   74   81 1   
    81   74   82 1   
    82   75   79 1   
    83   83   84 1   
    84   83   91 1   
    85   84   85 1   
    86   84   87 1   
    87   84   92 1   
    88   85   86 2   
    89   85  102 1   
    90   87   88 1   
    91   87   89 1   
    92   87   93 1   
    93   88   90 1   
    94   88   94 1   
    95   88   95 1   
    96   89   96 1   
    97   89   97 1   
    98   89   98 1   
    99   90   99 1   
   100   90  100 1   
   101   90  101 1   
   102  102  103 1   
   103  102  110 1   
   104  103  104 1   
   105  103  106 1   
   106  103  111 1   
   107  104  105 2   
   108  104  114 1   
   109  106  107 1   
   110  106  112 1   
   111  106  113 1   
   112  107  108 1   
   113  107  109 1   
   114  114  115 1   
   115  114  125 1   
   116  115  116 1   
   117  115  118 1   
   118  115  126 1   
   119  116  117 2   
   120  116  134 1   
   121  118  119 1   
   122  118  127 1   
   123  118  128 1   
   124  119  120 ar  
   125  119  121 ar  
   126  120  122 ar  
   127  120  129 1   
   128  121  123 ar  
   129  121  130 1   
   130  122  124 ar  
   131  122  131 1   
   132  123  124 ar  
   133  123  132 1   
   134  124  133 1   
   135  134  135 1   
   136  134  140 1   
   137  135  136 1   
   138  135  138 1   
   139  135  141 1   
   140  136  137 2   
   141  136  148 1   
   142  138  139 1   
   143  138  142 1   
   144  138  143 1   
   145  139  140 1   
   146  139  144 1   
   147  139  145 1   
   148  140  146 1   
   149  140  147 1   
   150  148  149 1   
   151  148  157 1   
   152  149  150 1   
   153  149  152 1   
   154  149  158 1   
   155  150  151 2   
   156  150  163 1   
   157  152  153 1   
   158  152  159 1   
   159  152  160 1   
   160  153  154 1   
   161  153  161 1   
   162  153  162 1   
   163  154  155 1   
   164  154  156 1   
   165  163  164 1   
   166  163  168 1   
   167  164  165 1   
   168  164  166 1   
   169  164  167 1   
   170  170  171 1   
   171  170  172 1   
@<TRIPOS>SUBSTRUCTURE
     1 MOL         1 TEMP              0 ****  ****    0 ROOT
