@<TRIPOS>MOLECULE
MOL
  172   171     1     0     0
SMALL
resp


@<TRIPOS>ATOM
      1 C1         -0.6100   -3.6820    5.8580 c3        1 MOL     -0.342882
      2 C2         -0.1340   -3.7260    4.4190 c         1 MOL      0.632057
      3 O1         -0.9380   -4.0230    3.4930 o         1 MOL     -0.555629
      4 H1         -0.0230   -4.3780    6.4560 hc        1 MOL      0.083347
      5 H2         -0.4880   -2.6720    6.2510 hc        1 MOL      0.083347
      6 H3         -1.6620   -3.9630    5.9020 hc        1 MOL      0.083347
      7 N1          1.0390   -3.1690    4.2060 n         1 MOL     -0.477744
      8 C3          1.7510   -3.1460    2.9280 c3        1 MOL      0.054203
      9 C4          1.8700   -4.5050    2.2100 c         1 MOL      0.639501
     10 O2          2.0390   -5.4990    2.8610 o         1 MOL     -0.598263
     11 C5          3.1880   -2.6500    3.1980 c3        1 MOL     -0.303749
     12 C6          3.9740   -2.3110    1.9000 c         1 MOL      0.631792
     13 O3          3.3380   -1.9890    0.8680 o         1 MOL     -0.628915
     14 O4          5.2000   -2.2740    1.8780 o         1 MOL     -0.628915
     15 H4          1.5260   -2.8330    5.0260 hn        1 MOL      0.288094
     16 H5          1.2330   -2.4870    2.2370 h1        1 MOL      0.045086
     17 H6          3.6180   -3.3130    3.9420 hc        1 MOL      0.070313
     18 H7          3.1760   -1.6850    3.7010 hc        1 MOL      0.070313
     19 N2          1.9510   -4.3930    0.9270 n         1 MOL     -0.515706
     20 C7          2.2980   -5.4840   -0.0250 c3        1 MOL      0.313400
     21 C8          3.3930   -5.1460   -1.1090 c         1 MOL      0.446872
     22 O5          3.7550   -6.1140   -1.8150 o         1 MOL     -0.586654
     23 C9          0.9720   -5.9860   -0.5330 c3        1 MOL     -0.190157
     24 H8          1.9920   -3.4590    0.5320 hn        1 MOL      0.366049
     25 H9          2.7640   -6.3130    0.5190 h1        1 MOL     -0.008794
     26 H10         1.0920   -6.7460   -1.3050 hc        1 MOL      0.039845
     27 H11         0.3820   -6.3740    0.3000 hc        1 MOL      0.039845
     28 H12         0.3420   -5.1680   -0.8870 hc        1 MOL      0.039845
     29 N3          3.9310   -3.9570   -1.2720 n         1 MOL     -0.296169
     30 C10         4.9040   -3.7060   -2.4290 c3        1 MOL     -0.032952
     31 C11         6.1410   -2.8380   -2.0700 c         1 MOL      0.439071
     32 O6          6.9700   -2.5360   -2.9370 o         1 MOL     -0.573732
     33 C12         4.1200   -3.1060   -3.6220 c3        1 MOL     -0.058868
     34 C13         3.3790   -1.7710   -3.3490 c         1 MOL      0.739408
     35 O7          2.5530   -1.3820   -4.2260 o         1 MOL     -0.710373
     36 O8          3.5490   -1.1000   -2.2900 o         1 MOL     -0.710373
     37 H13         3.6520   -3.1500   -0.7390 hn        1 MOL      0.157643
     38 H14         5.4490   -4.6040   -2.7130 h1        1 MOL      0.093555
     39 H15         3.3440   -3.7850   -3.9600 hc        1 MOL      0.018051
     40 H16         4.7860   -2.9020   -4.4640 hc        1 MOL      0.018051
     41 N4          6.2770   -2.4300   -0.8720 n         1 MOL     -0.126022
     42 C14         7.4060   -1.6560   -0.3630 c3        1 MOL     -0.323152
     43 C15         7.5010   -0.1570   -0.7970 c         1 MOL      0.510551
     44 O9          8.5680    0.4020   -0.6310 o         1 MOL     -0.590908
     45 H17         5.5180   -2.5920   -0.2210 hn        1 MOL      0.142633
     46 H18         8.2310   -2.2290   -0.7840 h1        1 MOL      0.150037
     47 H19         7.3660   -1.5890    0.7270 h1        1 MOL      0.150037
     48 N5          6.5280    0.5090   -1.4180 n         1 MOL     -0.081443
     49 C16         6.5780    1.8780   -1.9260 c3        1 MOL     -0.162948
     50 C17         6.4020    2.9340   -0.8450 c         1 MOL      0.574162
     51 O10         6.5950    4.1080   -1.1520 o         1 MOL     -0.557738
     52 C18         5.5100    1.9420   -2.9750 c3        1 MOL     -0.028804
     53 C19         4.1140    2.0250   -2.4410 c         1 MOL      0.675073
     54 N6          3.1810    2.2330   -3.3320 n         1 MOL     -0.782594
     55 O11         3.8460    1.8520   -1.3130 o         1 MOL     -0.637503
     56 H20         5.6300    0.0850   -1.6080 hn        1 MOL      0.098492
     57 H21         7.5750    2.0270   -2.3490 h1        1 MOL      0.126791
     58 H22         5.5360    1.0140   -3.5490 hc        1 MOL      0.028974
     59 H23         5.6390    2.7820   -3.6660 hc        1 MOL      0.028974
     60 H24         3.3860    2.2110   -4.3270 hn        1 MOL      0.373663
     61 H25         2.2330    2.4880   -3.0750 hn        1 MOL      0.373663
     62 N7          6.1590    2.6600    0.4320 n         1 MOL     -0.333568
     63 C20         6.1550    3.5640    1.5990 c3        1 MOL     -0.320785
     64 C21         4.8740    4.3970    1.8240 c         1 MOL      0.542117
     65 O12         4.8730    5.1590    2.7810 o         1 MOL     -0.581443
     66 H26         5.8580    1.7370    0.7060 hn        1 MOL      0.284096
     67 H27         7.0210    4.2290    1.5520 h1        1 MOL      0.150705
     68 H28         6.2750    2.9560    2.4980 h1        1 MOL      0.150705
     69 N8          3.7890    4.1020    1.1260 n         1 MOL     -0.181060
     70 C22         2.4540    4.6710    1.2380 c3        1 MOL     -0.306603
     71 C23         1.3990    3.5900    1.2720 c         1 MOL      0.525247
     72 O13         1.5910    2.4720    0.7840 o         1 MOL     -0.542156
     73 C24         2.2530    5.6280    0.0490 c3        1 MOL      0.542763
     74 C25         3.0910    6.8930    0.1850 c3        1 MOL     -0.500566
     75 O14         2.4660    5.1610   -1.2080 oh        1 MOL     -0.606489
     76 H29         3.8740    3.3550    0.4560 hn        1 MOL      0.265011
     77 H30         2.4080    5.2780    2.1400 h1        1 MOL      0.124809
     78 H31         1.2220    5.9670    0.0720 h1        1 MOL     -0.064749
     79 H32         1.6220    4.8740   -1.5580 ho        1 MOL      0.402838
     80 H33         2.6740    7.7010   -0.4060 hc        1 MOL      0.126267
     81 H34         3.1300    7.1650    1.2430 hc        1 MOL      0.126267
     82 H35         4.1260    6.6990   -0.1020 hc        1 MOL      0.126267
     83 N9          0.2500    3.9310    1.8390 n         1 MOL     -0.331600
     84 C26        -0.8770    2.9850    1.8270 c3        1 MOL      0.050463
     85 C27        -1.6860    3.1330    0.4850 c         1 MOL      0.419258
     86 O15        -2.1630    4.2340    0.2470 o         1 MOL     -0.574395
     87 C28        -1.6760    3.2080    3.0700 c3        1 MOL      0.065747
     88 C29        -0.7990    3.1650    4.3280 c3        1 MOL     -0.045354
     89 C30        -2.8330    2.1060    3.2180 c3        1 MOL     -0.211981
     90 C31        -0.5850    4.5840    5.0020 c3        1 MOL     -0.068561
     91 H36         0.0580    4.8530    2.2000 hn        1 MOL      0.263141
     92 H37        -0.4840    1.9580    1.8460 h1        1 MOL      0.083274
     93 H38        -2.1640    4.1790    2.9750 hc        1 MOL      0.015631
     94 H39         0.1550    2.6870    4.0810 hc        1 MOL      0.025852
     95 H40        -1.2630    2.5130    5.0680 hc        1 MOL      0.025852
     96 H41        -3.4200    2.2460    4.1300 hc        1 MOL      0.046080
     97 H42        -3.4840    2.0700    2.3470 hc        1 MOL      0.046080
     98 H43        -2.4690    1.0830    3.2980 hc        1 MOL      0.046080
     99 H44        -0.1600    4.3730    5.9790 hc        1 MOL      0.008453
    100 H45         0.0960    5.1300    4.3460 hc        1 MOL      0.008453
    101 H46        -1.4510    5.2300    5.1820 hc        1 MOL      0.008453
    102 N10        -1.8630    2.0580   -0.2640 n         1 MOL      0.006976
    103 C32        -2.7110    1.9530   -1.4500 c3        1 MOL      0.105673
    104 C33        -4.1040    1.3920   -1.0930 c         1 MOL      0.300371
    105 O16        -4.3060    0.9020   -0.0120 o         1 MOL     -0.227477
    106 C34        -1.9670    1.0620   -2.5310 c3        1 MOL     -0.245930
    107 C35        -0.5120    1.5270   -2.7920 c         1 MOL      0.741265
    108 O17         0.3920    1.1870   -2.0230 o         1 MOL     -0.704547
    109 O18        -0.3580    2.4190   -3.6510 o         1 MOL     -0.704547
    110 H47        -1.4490    1.1710    0.0140 hn        1 MOL     -0.129288
    111 H48        -2.8870    2.9620   -1.8060 h1        1 MOL      0.055207
    112 H49        -2.4720    1.0110   -3.5010 hc        1 MOL      0.076230
    113 H50        -1.9270    0.0060   -2.2580 hc        1 MOL      0.076230
    114 N11        -5.1600    1.5440   -1.9180 n         1 MOL     -0.513178
    115 C36        -6.5330    1.2330   -1.4950 c3        1 MOL      0.302821
    116 C37        -6.7700   -0.2640   -1.1490 c         1 MOL      0.293099
    117 O19        -7.3150   -0.5040   -0.0990 o         1 MOL     -0.441980
    118 C38        -7.4790    1.7870   -2.5560 c3        1 MOL     -0.267683
    119 C39        -8.8740    1.7080   -2.0320 ca        1 MOL      0.154309
    120 C40        -9.3660    2.7300   -1.2250 ca        1 MOL     -0.234758
    121 C41        -9.6830    0.6580   -2.4570 ca        1 MOL     -0.234758
    122 C42       -10.6420    2.6040   -0.7980 ca        1 MOL     -0.041642
    123 C43       -10.9880    0.5440   -1.9630 ca        1 MOL     -0.041642
    124 C44       -11.4910    1.5590   -1.1490 ca        1 MOL     -0.158002
    125 H51        -5.0030    1.8560   -2.8660 hn        1 MOL      0.280095
    126 H52        -6.6610    1.8820   -0.6290 h1        1 MOL      0.075046
    127 H53        -7.3770    1.2260   -3.4740 hc        1 MOL      0.085788
    128 H54        -7.2540    2.8370   -2.7510 hc        1 MOL      0.085788
    129 H55        -8.7900    3.5940   -0.9420 ha        1 MOL      0.140774
    130 H56        -9.4090   -0.0300   -3.2350 ha        1 MOL      0.140774
    131 H57       -11.0220    3.4270   -0.2100 ha        1 MOL      0.091858
    132 H58       -11.5780   -0.3210   -2.2120 ha        1 MOL      0.091858
    133 H59       -12.5350    1.6030   -0.8760 ha        1 MOL      0.101055
    134 N12        -6.1830   -1.3110   -1.7900 n         1 MOL     -0.050306
    135 C45        -6.2740   -2.7740   -1.2610 c3        1 MOL     -0.076050
    136 C46        -5.6670   -2.9680    0.1260 c         1 MOL      0.297590
    137 O20        -6.0290   -3.7760    0.9360 o         1 MOL     -0.484239
    138 C47        -5.5230   -3.5830   -2.2420 c3        1 MOL      0.135084
    139 C48        -5.6400   -2.7350   -3.4970 c3        1 MOL      0.006421
    140 C49        -5.5400   -1.3030   -3.0690 c3        1 MOL     -0.138917
    141 H60        -7.3000   -3.1160   -1.3200 h1        1 MOL      0.088936
    142 H61        -4.4630   -3.5370   -1.9910 hc        1 MOL      0.000140
    143 H62        -5.8210   -4.6050   -2.4730 hc        1 MOL      0.000140
    144 H63        -4.7880   -3.0080   -4.1160 hc        1 MOL      0.005374
    145 H64        -6.5480   -2.9900   -4.0320 hc        1 MOL      0.005374
    146 H65        -4.4710   -1.0590   -3.0120 h1        1 MOL      0.063648
    147 H66        -6.0120   -0.6470   -3.7960 h1        1 MOL      0.063648
    148 N13        -4.6540   -2.1520    0.4560 n         1 MOL     -0.094585
    149 C50        -3.8880   -2.1310    1.7270 c3        1 MOL     -0.040278
    150 C51        -4.6730   -1.3190    2.7310 c         1 MOL      0.418611
    151 O21        -4.7680   -1.6230    3.9130 o         1 MOL     -0.576843
    152 C52        -2.4700   -1.4890    1.4230 c3        1 MOL     -0.021080
    153 C53        -1.7050   -2.2620    0.3710 c3        1 MOL     -0.126065
    154 C54        -0.3040   -1.6600    0.1610 c         1 MOL      0.658657
    155 O22         0.5220   -2.1950   -0.6400 o         1 MOL     -0.743462
    156 O23         0.0020   -0.6050    0.7940 o         1 MOL     -0.743462
    157 H67        -4.4050   -1.3810   -0.1440 hn        1 MOL      0.112988
    158 H68        -3.7750   -3.0990    2.2250 h1        1 MOL      0.113338
    159 H69        -1.9450   -1.5120    2.3820 hc        1 MOL      0.071146
    160 H70        -2.6070   -0.4750    1.0720 hc        1 MOL      0.071146
    161 H71        -2.1930   -2.0540   -0.5860 hc        1 MOL      0.058451
    162 H72        -1.8030   -3.3170    0.6150 hc        1 MOL      0.058451
    163 N14        -5.4160   -0.2650    2.3100 n         1 MOL      0.092963
    164 C55        -6.4320    0.4730    3.1280 c3        1 MOL     -0.157944
    165 H73        -6.3320    0.1880    4.1760 h1        1 MOL      0.057939
    166 H74        -6.2710    1.5470    3.0270 h1        1 MOL      0.057939
    167 H75        -7.4340    0.2210    2.7770 h1        1 MOL      0.057939
    168 H76        -5.3050   -0.0440    1.3380 hn        1 MOL     -0.100807
    169 Ca1         2.1590    0.0660   -0.4370 Ca        1 MOL      1.693910
    170 O24         3.7100    0.8680    1.6550 oh        1 MOL     -0.872067
    171 H77         2.9910    0.9730    2.2780 ho        1 MOL      0.425396
    172 H78         4.4520    0.6020    2.1800 ho        1 MOL      0.425396
@<TRIPOS>BOND
     1    1    2 1   
     2    1    4 1   
     3    1    5 1   
     4    1    6 1   
     5    2    3 2   
     6    2    7 1   
     7    7    8 1   
     8    7   15 1   
     9    8    9 1   
    10    8   11 1   
    11    8   16 1   
    12    9   10 2   
    13    9   19 1   
    14   11   12 1   
    15   11   17 1   
    16   11   18 1   
    17   12   13 1   
    18   12   14 1   
    19   19   20 1   
    20   19   24 1   
    21   20   21 1   
    22   20   23 1   
    23   20   25 1   
    24   21   22 2   
    25   21   29 1   
    26   23   26 1   
    27   23   27 1   
    28   23   28 1   
    29   29   30 1   
    30   29   37 1   
    31   30   31 1   
    32   30   33 1   
    33   30   38 1   
    34   31   32 2   
    35   31   41 1   
    36   33   34 1   
    37   33   39 1   
    38   33   40 1   
    39   34   35 1   
    40   34   36 1   
    41   41   42 1   
    42   41   45 1   
    43   42   43 1   
    44   42   46 1   
    45   42   47 1   
    46   43   44 2   
    47   43   48 1   
    48   48   49 1   
    49   48   56 1   
    50   49   50 1   
    51   49   52 1   
    52   49   57 1   
    53   50   51 2   
    54   50   62 1   
    55   52   53 1   
    56   52   58 1   
    57   52   59 1   
    58   53   54 1   
    59   53   55 2   
    60   54   60 1   
    61   54   61 1   
    62   62   63 1   
    63   62   66 1   
    64   63   64 1   
    65   63   67 1   
    66   63   68 1   
    67   64   65 2   
    68   64   69 1   
    69   69   70 1   
    70   69   76 1   
    71   70   71 1   
    72   70   73 1   
    73   70   77 1   
    74   71   72 2   
    75   71   83 1   
    76   73   74 1   
    77   73   75 1   
    78   73   78 1   
    79   74   80 1   
    80   74   81 1   
    81   74   82 1   
    82   75   79 1   
    83   83   84 1   
    84   83   91 1   
    85   84   85 1   
    86   84   87 1   
    87   84   92 1   
    88   85   86 2   
    89   85  102 1   
    90   87   88 1   
    91   87   89 1   
    92   87   93 1   
    93   88   90 1   
    94   88   94 1   
    95   88   95 1   
    96   89   96 1   
    97   89   97 1   
    98   89   98 1   
    99   90   99 1   
   100   90  100 1   
   101   90  101 1   
   102  102  103 1   
   103  102  110 1   
   104  103  104 1   
   105  103  106 1   
   106  103  111 1   
   107  104  105 2   
   108  104  114 1   
   109  106  107 1   
   110  106  112 1   
   111  106  113 1   
   112  107  108 1   
   113  107  109 1   
   114  114  115 1   
   115  114  125 1   
   116  115  116 1   
   117  115  118 1   
   118  115  126 1   
   119  116  117 2   
   120  116  134 1   
   121  118  119 1   
   122  118  127 1   
   123  118  128 1   
   124  119  120 ar  
   125  119  121 ar  
   126  120  122 ar  
   127  120  129 1   
   128  121  123 ar  
   129  121  130 1   
   130  122  124 ar  
   131  122  131 1   
   132  123  124 ar  
   133  123  132 1   
   134  124  133 1   
   135  134  135 1   
   136  134  140 1   
   137  135  136 1   
   138  135  138 1   
   139  135  141 1   
   140  136  137 2   
   141  136  148 1   
   142  138  139 1   
   143  138  142 1   
   144  138  143 1   
   145  139  140 1   
   146  139  144 1   
   147  139  145 1   
   148  140  146 1   
   149  140  147 1   
   150  148  149 1   
   151  148  157 1   
   152  149  150 1   
   153  149  152 1   
   154  149  158 1   
   155  150  151 2   
   156  150  163 1   
   157  152  153 1   
   158  152  159 1   
   159  152  160 1   
   160  153  154 1   
   161  153  161 1   
   162  153  162 1   
   163  154  155 1   
   164  154  156 1   
   165  163  164 1   
   166  163  168 1   
   167  164  165 1   
   168  164  166 1   
   169  164  167 1   
   170  170  171 1   
   171  170  172 1   
@<TRIPOS>SUBSTRUCTURE
     1 MOL         1 TEMP              0 ****  ****    0 ROOT
