@<TRIPOS>MOLECULE
MOL
  172   171     1     0     0
SMALL
resp


@<TRIPOS>ATOM
      1 C1          0.3110    3.2140    5.7800 c3        1 MOL     -0.554014
      2 C2         -0.0730    2.8920    4.3350 c         1 MOL      0.755962
      3 O1          0.5130    3.3930    3.3770 o         1 MOL     -0.578837
      4 H1          1.1610    3.8960    5.7860 hc        1 MOL      0.142325
      5 H2         -0.5340    3.6820    6.2860 hc        1 MOL      0.142325
      6 H3          0.5810    2.2940    6.2980 hc        1 MOL      0.142325
      7 N1         -1.1500    2.0650    4.1570 n         1 MOL     -0.577090
      8 C3         -1.7030    1.8090    2.7880 c3        1 MOL      0.080237
      9 C4         -2.2430    3.0510    2.1850 c         1 MOL      0.363156
     10 O2         -3.3790    3.4630    2.5450 o         1 MOL     -0.545366
     11 C5         -2.6720    0.6790    2.8460 c3        1 MOL      0.034984
     12 C6         -3.4010    0.2330    1.5760 c         1 MOL      0.676602
     13 O3         -4.3420   -0.6010    1.6620 o         1 MOL     -0.712285
     14 O4         -3.1810    0.6980    0.4320 o         1 MOL     -0.712285
     15 H4         -1.6640    1.6030    4.8920 hn        1 MOL      0.298114
     16 H5         -0.8160    1.5370    2.2170 h1        1 MOL      0.073799
     17 H6         -3.4750    0.8210    3.5670 hc        1 MOL     -0.002942
     18 H7         -2.1920   -0.2400    3.2000 hc        1 MOL     -0.002942
     19 N2         -1.6320    3.6110    1.1400 n         1 MOL      0.037190
     20 C7         -1.8570    4.9730    0.5950 c3        1 MOL      0.039974
     21 C8         -3.0280    5.2120   -0.3000 c         1 MOL      0.458213
     22 O5         -3.7090    6.2250   -0.1930 o         1 MOL     -0.561298
     23 C9         -0.5620    5.2420   -0.1230 c3        1 MOL     -0.128019
     24 H8         -0.8740    3.1270    0.6970 hn        1 MOL      0.019135
     25 H9         -1.9200    5.7150    1.3890 h1        1 MOL      0.057982
     26 H10        -0.5350    6.1860   -0.6750 hc        1 MOL      0.027699
     27 H11         0.2720    5.3140    0.5750 hc        1 MOL      0.027699
     28 H12        -0.3140    4.5030   -0.8830 hc        1 MOL      0.027699
     29 N3         -3.3730    4.2580   -1.1790 n         1 MOL     -0.288528
     30 C10        -4.6500    4.1160   -1.8800 c3        1 MOL      0.100849
     31 C11        -5.7580    3.3850   -1.0600 c         1 MOL      0.297049
     32 O6         -6.9590    3.4250   -1.3550 o         1 MOL     -0.544374
     33 C12        -4.5700    3.5060   -3.3310 c3        1 MOL     -0.355196
     34 C13        -3.9170    2.1350   -3.3260 c         1 MOL      0.901755
     35 O7         -3.8370    1.6220   -4.4670 o         1 MOL     -0.762344
     36 O8         -3.3970    1.6340   -2.3170 o         1 MOL     -0.762344
     37 H13        -2.7250    3.5050   -1.3510 hn        1 MOL      0.213780
     38 H14        -4.9440    5.1670   -1.9760 h1        1 MOL      0.077699
     39 H15        -4.0510    4.2950   -3.8660 hc        1 MOL      0.089206
     40 H16        -5.5980    3.4700   -3.7040 hc        1 MOL      0.089206
     41 N4         -5.3500    2.7580    0.0550 n         1 MOL      0.096380
     42 C14        -6.1690    2.0210    1.0260 c3        1 MOL     -0.006991
     43 C15        -6.8890    0.7660    0.4960 c         1 MOL      0.406601
     44 O9         -8.1040    0.5980    0.8620 o         1 MOL     -0.584996
     45 H17        -4.3570    2.6930    0.2280 hn        1 MOL     -0.119226
     46 H18        -6.8550    2.7310    1.4940 h1        1 MOL      0.061894
     47 H19        -5.5000    1.7940    1.8500 h1        1 MOL      0.061894
     48 N5         -6.3580    0.1030   -0.5680 n         1 MOL     -0.155856
     49 C16        -7.0220   -1.0130   -1.2070 c3        1 MOL     -0.141892
     50 C17        -6.9360   -2.3320   -0.3730 c         1 MOL      0.514477
     51 O10        -7.2040   -3.3810   -0.8170 o         1 MOL     -0.533199
     52 C18        -6.4730   -1.1640   -2.6760 c3        1 MOL     -0.123227
     53 C19        -5.1100   -1.7220   -2.7260 c         1 MOL      0.596442
     54 N6         -4.7600   -2.2790   -3.8800 n         1 MOL     -0.747695
     55 O11        -4.2840   -1.5690   -1.8560 o         1 MOL     -0.604236
     56 H20        -5.4080    0.3320   -0.8450 hn        1 MOL      0.225796
     57 H21        -8.0390   -0.6370   -1.2480 h1        1 MOL      0.124338
     58 H22        -6.4870   -0.1540   -3.0930 hc        1 MOL      0.071837
     59 H23        -7.2300   -1.7570   -3.1800 hc        1 MOL      0.071837
     60 H24        -5.3610   -2.3320   -4.6920 hn        1 MOL      0.356055
     61 H25        -3.9020   -2.7940   -3.9020 hn        1 MOL      0.356055
     62 N7         -6.5390   -2.2440    0.9170 n         1 MOL     -0.262034
     63 C20        -6.3240   -3.2780    1.8440 c3        1 MOL     -0.264958
     64 C21        -5.0840   -4.1130    1.7230 c         1 MOL      0.551327
     65 O12        -5.0210   -5.2140    2.2960 o         1 MOL     -0.598184
     66 H26        -6.1640   -1.3440    1.1680 hn        1 MOL      0.270780
     67 H27        -7.1280   -4.0000    1.8320 h1        1 MOL      0.115420
     68 H28        -6.2360   -2.8240    2.8280 h1        1 MOL      0.115420
     69 N8         -4.1510   -3.6010    0.9860 n         1 MOL     -0.039301
     70 C22        -2.8080   -4.2260    0.8570 c3        1 MOL     -0.619533
     71 C23        -1.6710   -3.2580    0.8750 c         1 MOL      1.122077
     72 O13        -1.6920   -2.2810    0.1320 o         1 MOL     -0.699088
     73 C24        -2.6920   -5.1400   -0.3730 c3        1 MOL      0.464356
     74 C25        -3.6180   -6.4290   -0.2560 c3        1 MOL     -0.436157
     75 O14        -3.0740   -4.5430   -1.6080 oh        1 MOL     -0.654003
     76 H29        -4.1870   -2.5990    0.8330 hn        1 MOL      0.171401
     77 H30        -2.6970   -4.8260    1.7550 h1        1 MOL      0.151532
     78 H31        -1.6610   -5.4900   -0.4280 h1        1 MOL      0.036021
     79 H32        -3.9620   -4.8770   -1.7630 ho        1 MOL      0.422588
     80 H33        -4.6910   -6.2220   -0.2580 hc        1 MOL      0.108121
     81 H34        -3.4300   -7.0710   -1.1120 hc        1 MOL      0.108121
     82 H35        -3.2890   -6.9240    0.6590 hc        1 MOL      0.108121
     83 N9         -0.6140   -3.4660    1.6880 n         1 MOL     -0.831467
     84 C26         0.6160   -2.7410    1.6770 c3        1 MOL      0.032813
     85 C27         1.4810   -3.0920    0.4600 c         1 MOL      0.801945
     86 O15         1.9150   -4.2200    0.3320 o         1 MOL     -0.633198
     87 C28         1.3020   -2.8680    3.1420 c3        1 MOL      0.023056
     88 C29         0.3760   -2.4640    4.3670 c3        1 MOL      0.130012
     89 C30         2.5320   -1.9410    3.0440 c3        1 MOL     -0.055686
     90 C31         0.9720   -2.7130    5.6950 c3        1 MOL     -0.232137
     91 H36        -0.6430   -4.2460    2.3290 hn        1 MOL      0.356079
     92 H37         0.4120   -1.6670    1.5710 h1        1 MOL      0.152117
     93 H38         1.5630   -3.9100    3.3000 hc        1 MOL      0.022602
     94 H39        -0.5160   -3.0870    4.3000 hc        1 MOL     -0.001202
     95 H40         0.1130   -1.4170    4.4470 hc        1 MOL     -0.001202
     96 H41         3.2060   -2.2410    2.2470 hc        1 MOL      0.023877
     97 H42         2.1720   -0.9110    2.9380 hc        1 MOL      0.023877
     98 H43         3.0250   -1.9150    4.0170 hc        1 MOL      0.023877
     99 H44         1.5060   -1.8350    6.0650 hc        1 MOL      0.043880
    100 H45         0.1830   -2.9130    6.4210 hc        1 MOL      0.043880
    101 H46         1.5550   -3.6380    5.6230 hc        1 MOL      0.043880
    102 N10         1.8280   -2.0390   -0.2840 n         1 MOL     -0.291583
    103 C32         2.8690   -2.0660   -1.3120 c3        1 MOL      0.424511
    104 C33         4.2230   -1.5690   -0.8430 c         1 MOL      0.123751
    105 O16         4.2560   -0.7870    0.0790 o         1 MOL     -0.010465
    106 C34         2.4710   -1.2130   -2.5610 c3        1 MOL      0.046164
    107 C35         1.1570   -1.5410   -3.2560 c         1 MOL      0.737642
    108 O17         0.0520   -1.5420   -2.6180 o         1 MOL     -0.706090
    109 O18         1.2530   -2.0900   -4.3520 o         1 MOL     -0.706090
    110 H47         1.6600   -1.1130    0.0720 hn        1 MOL     -0.710785
    111 H48         2.9210   -3.0600   -1.7430 h1        1 MOL     -0.004348
    112 H49         3.2800   -1.3420   -3.2780 hc        1 MOL     -0.029784
    113 H50         2.4770   -0.1450   -2.3350 hc        1 MOL     -0.029784
    114 N11         5.3350   -1.8950   -1.4520 n         1 MOL     -0.641049
    115 C36         6.6490   -1.3860   -0.9520 c3        1 MOL      0.448168
    116 C37         6.7180    0.0980   -0.6990 c         1 MOL      0.289378
    117 O19         7.2100    0.4180    0.3620 o         1 MOL     -0.489043
    118 C38         7.7850   -1.9520   -1.8720 c3        1 MOL     -0.203964
    119 C39         9.1780   -1.7780   -1.3930 ca        1 MOL      0.201122
    120 C40         9.5970   -2.3010   -0.1390 ca        1 MOL     -0.240142
    121 C41        10.0100   -0.9300   -2.1000 ca        1 MOL     -0.240142
    122 C42        10.9270   -1.9650    0.3330 ca        1 MOL     -0.014437
    123 C43        11.2300   -0.5440   -1.6340 ca        1 MOL     -0.014437
    124 C44        11.7130   -1.1810   -0.5050 ca        1 MOL     -0.222499
    125 H51         5.3290   -2.5730   -2.2050 hn        1 MOL      0.342088
    126 H52         6.7970   -1.8690    0.0160 h1        1 MOL      0.053770
    127 H53         7.5470   -1.4920   -2.8310 hc        1 MOL      0.031805
    128 H54         7.7150   -3.0420   -1.8910 hc        1 MOL      0.031805
    129 H55         8.8370   -2.8430    0.4070 ha        1 MOL      0.120763
    130 H56         9.6580   -0.6670   -3.0800 ha        1 MOL      0.120763
    131 H57        11.2360   -2.3780    1.2860 ha        1 MOL      0.100859
    132 H58        11.7380    0.2670   -2.1350 ha        1 MOL      0.100859
    133 H59        12.6770   -0.8400   -0.1490 ha        1 MOL      0.112896
    134 N12         6.1870    0.9830   -1.6000 n         1 MOL     -0.040421
    135 C45         6.2930    2.4420   -1.3200 c3        1 MOL      0.189427
    136 C46         5.5220    2.8770    0.0160 c         1 MOL      0.200903
    137 O20         5.7700    3.8860    0.6230 o         1 MOL     -0.499438
    138 C47         5.8450    3.1650   -2.6010 c3        1 MOL     -0.154909
    139 C48         6.1830    2.1300   -3.7010 c3        1 MOL     -0.061827
    140 C49         5.8570    0.8130   -2.9550 c3        1 MOL     -0.088657
    141 H60         7.3640    2.5680   -1.1590 h1        1 MOL      0.024785
    142 H61         4.7640    3.3020   -2.5370 hc        1 MOL      0.075124
    143 H62         6.4600    4.0680   -2.6320 hc        1 MOL      0.075124
    144 H63         5.5200    2.1630   -4.5690 hc        1 MOL      0.028326
    145 H64         7.2150    2.0960   -4.0330 hc        1 MOL      0.028326
    146 H65         4.7680    0.7240   -3.0670 h1        1 MOL      0.075650
    147 H66         6.3360   -0.0480   -3.4100 h1        1 MOL      0.075650
    148 N13         4.5440    2.0900    0.3370 n         1 MOL      0.008662
    149 C50         3.6750    2.1490    1.4970 c3        1 MOL     -0.039231
    150 C51         4.3560    1.5230    2.7030 c         1 MOL      0.387141
    151 O21         4.2200    1.8720    3.8640 o         1 MOL     -0.563519
    152 C52         2.3120    1.5550    1.1700 c3        1 MOL      0.028826
    153 C53         1.5540    2.3010    0.0890 c3        1 MOL     -0.276749
    154 C54         0.3760    1.5310   -0.4830 c         1 MOL      0.645508
    155 O22        -0.0380    0.5470    0.1280 o         1 MOL     -0.601851
    156 O23        -0.1690    1.9380   -1.5450 o         1 MOL     -0.601851
    157 H67         4.4460    1.2530   -0.2210 hn        1 MOL     -0.011332
    158 H68         3.5330    3.1780    1.8170 h1        1 MOL      0.098467
    159 H69         1.7820    1.5710    2.1260 hc        1 MOL      0.130900
    160 H70         2.4900    0.5100    0.9410 hc        1 MOL      0.130900
    161 H71         2.2270    2.3590   -0.7690 hc        1 MOL      0.097310
    162 H72         1.2230    3.2180    0.5760 hc        1 MOL      0.097310
    163 N14         5.2060    0.5090    2.5250 n         1 MOL      0.105357
    164 C55         6.0250   -0.2140    3.4920 c3        1 MOL     -0.070171
    165 H73         6.8250    0.4360    3.8470 h1        1 MOL      0.034776
    166 H74         5.4060   -0.5210    4.3350 h1        1 MOL      0.034776
    167 H75         6.4570   -1.0950    3.0160 h1        1 MOL      0.034776
    168 H76         5.1470    0.0590    1.6260 hn        1 MOL     -0.185110
    169 Ca1        -1.8270   -0.3080   -1.4900 Ca        1 MOL      1.800035
    170 O24        -1.3040    0.6000   -4.1570 oh        1 MOL     -0.982158
    171 H77        -2.2330    0.8000   -4.1920 ho        1 MOL      0.442525
    172 H78        -0.9380    0.9900   -4.9480 ho        1 MOL      0.442525
@<TRIPOS>BOND
     1    1    2 1   
     2    1    4 1   
     3    1    5 1   
     4    1    6 1   
     5    2    3 2   
     6    2    7 1   
     7    7    8 1   
     8    7   15 1   
     9    8    9 1   
    10    8   11 1   
    11    8   16 1   
    12    9   10 2   
    13    9   19 1   
    14   11   12 1   
    15   11   17 1   
    16   11   18 1   
    17   12   13 1   
    18   12   14 1   
    19   19   20 1   
    20   19   24 1   
    21   20   21 1   
    22   20   23 1   
    23   20   25 1   
    24   21   22 2   
    25   21   29 1   
    26   23   26 1   
    27   23   27 1   
    28   23   28 1   
    29   29   30 1   
    30   29   37 1   
    31   30   31 1   
    32   30   33 1   
    33   30   38 1   
    34   31   32 2   
    35   31   41 1   
    36   33   34 1   
    37   33   39 1   
    38   33   40 1   
    39   34   35 1   
    40   34   36 1   
    41   41   42 1   
    42   41   45 1   
    43   42   43 1   
    44   42   46 1   
    45   42   47 1   
    46   43   44 2   
    47   43   48 1   
    48   48   49 1   
    49   48   56 1   
    50   49   50 1   
    51   49   52 1   
    52   49   57 1   
    53   50   51 2   
    54   50   62 1   
    55   52   53 1   
    56   52   58 1   
    57   52   59 1   
    58   53   54 1   
    59   53   55 2   
    60   54   60 1   
    61   54   61 1   
    62   62   63 1   
    63   62   66 1   
    64   63   64 1   
    65   63   67 1   
    66   63   68 1   
    67   64   65 2   
    68   64   69 1   
    69   69   70 1   
    70   69   76 1   
    71   70   71 1   
    72   70   73 1   
    73   70   77 1   
    74   71   72 2   
    75   71   83 1   
    76   73   74 1   
    77   73   75 1   
    78   73   78 1   
    79   74   80 1   
    80   74   81 1   
    81   74   82 1   
    82   75   79 1   
    83   83   84 1   
    84   83   91 1   
    85   84   85 1   
    86   84   87 1   
    87   84   92 1   
    88   85   86 2   
    89   85  102 1   
    90   87   88 1   
    91   87   89 1   
    92   87   93 1   
    93   88   90 1   
    94   88   94 1   
    95   88   95 1   
    96   89   96 1   
    97   89   97 1   
    98   89   98 1   
    99   90   99 1   
   100   90  100 1   
   101   90  101 1   
   102  102  103 1   
   103  102  110 1   
   104  103  104 1   
   105  103  106 1   
   106  103  111 1   
   107  104  105 2   
   108  104  114 1   
   109  106  107 1   
   110  106  112 1   
   111  106  113 1   
   112  107  108 1   
   113  107  109 1   
   114  114  115 1   
   115  114  125 1   
   116  115  116 1   
   117  115  118 1   
   118  115  126 1   
   119  116  117 2   
   120  116  134 1   
   121  118  119 1   
   122  118  127 1   
   123  118  128 1   
   124  119  120 ar  
   125  119  121 ar  
   126  120  122 ar  
   127  120  129 1   
   128  121  123 ar  
   129  121  130 1   
   130  122  124 ar  
   131  122  131 1   
   132  123  124 ar  
   133  123  132 1   
   134  124  133 1   
   135  134  135 1   
   136  134  140 1   
   137  135  136 1   
   138  135  138 1   
   139  135  141 1   
   140  136  137 2   
   141  136  148 1   
   142  138  139 1   
   143  138  142 1   
   144  138  143 1   
   145  139  140 1   
   146  139  144 1   
   147  139  145 1   
   148  140  146 1   
   149  140  147 1   
   150  148  149 1   
   151  148  157 1   
   152  149  150 1   
   153  149  152 1   
   154  149  158 1   
   155  150  151 2   
   156  150  163 1   
   157  152  153 1   
   158  152  159 1   
   159  152  160 1   
   160  153  154 1   
   161  153  161 1   
   162  153  162 1   
   163  154  155 1   
   164  154  156 1   
   165  163  164 1   
   166  163  168 1   
   167  164  165 1   
   168  164  166 1   
   169  164  167 1   
   170  170  171 1   
   171  170  172 1   
@<TRIPOS>SUBSTRUCTURE
     1 MOL         1 TEMP              0 ****  ****    0 ROOT
