@<TRIPOS>MOLECULE
MOL
  183   181     1     0     0
SMALL
resp


@<TRIPOS>ATOM
      1 C1         -0.4570    1.0530    6.1990 c3        1 MOL     -0.291225
      2 C2         -0.8870    1.2380    4.7480 c         1 MOL      0.798139
      3 O1         -0.1060    1.6850    3.9030 o         1 MOL     -0.595345
      4 H1          0.6100    0.8350    6.2360 hc        1 MOL      0.062076
      5 H2         -0.6610    1.9660    6.7580 hc        1 MOL      0.062076
      6 H3         -1.0120    0.2240    6.6400 hc        1 MOL      0.062076
      7 N1         -2.1790    0.9500    4.4670 n         1 MOL     -0.759378
      8 C3         -2.7510    1.0980    3.0710 c3        1 MOL      0.389814
      9 C4         -2.9850    2.6080    2.7790 c         1 MOL      0.419633
     10 O2         -3.6960    3.3500    3.4450 o         1 MOL     -0.577958
     11 C5         -3.9880    0.2230    2.9570 c3        1 MOL     -0.453812
     12 C6         -4.6650    0.2510    1.6090 c         1 MOL      0.879617
     13 O3         -5.7500   -0.3330    1.5190 o         1 MOL     -0.666206
     14 O4         -4.0370    0.7480    0.6460 o         1 MOL     -0.666206
     15 H4         -2.7060    0.5680    5.2420 hn        1 MOL      0.353935
     16 H5         -2.0540    0.7120    2.3290 h1        1 MOL     -0.058135
     17 H6         -4.5390    0.3790    3.8800 hc        1 MOL      0.092119
     18 H7         -3.5960   -0.7880    3.0630 hc        1 MOL      0.092119
     19 N2         -2.3060    3.1380    1.7630 n         1 MOL     -0.008851
     20 C7         -2.2730    4.5860    1.5010 c3        1 MOL     -0.477718
     21 C8         -3.2340    5.0030    0.4280 c         1 MOL      0.599137
     22 O5         -3.4110    6.1840    0.2010 o         1 MOL     -0.617099
     23 C9         -0.8340    5.0040    1.1790 c3        1 MOL      0.611006
     24 C10        -0.5860    6.5210    1.3330 c3        1 MOL      0.069877
     25 C11        -0.3040    4.4550   -0.0940 c3        1 MOL     -0.304485
     26 C12         0.7670    6.8510    1.8550 c3        1 MOL     -0.288411
     27 H8         -1.6120    2.5360    1.3320 hn        1 MOL      0.163497
     28 H9         -2.4900    5.0270    2.4810 h1        1 MOL      0.148436
     29 H10        -0.3470    4.5160    2.0300 hc        1 MOL     -0.100567
     30 H11        -1.3020    6.8140    2.0950 hc        1 MOL     -0.029727
     31 H12        -0.8170    7.0330    0.4090 hc        1 MOL     -0.029727
     32 H13        -0.7260    5.0260   -0.9200 hc        1 MOL      0.067441
     33 H14         0.7670    4.6110   -0.0120 hc        1 MOL      0.067441
     34 H15        -0.5220    3.3930   -0.1390 hc        1 MOL      0.067441
     35 H16         0.6470    7.9080    2.1060 hc        1 MOL      0.053076
     36 H17         0.8800    6.3000    2.7890 hc        1 MOL      0.053076
     37 H18         1.5570    6.7100    1.1140 hc        1 MOL      0.053076
     38 N3         -3.7920    4.1140   -0.4480 n         1 MOL     -0.219269
     39 C13        -4.7390    4.3920   -1.5130 c3        1 MOL     -0.091454
     40 C14        -6.0820    3.6240   -1.4330 c         1 MOL      0.486079
     41 O6         -7.0520    4.1200   -2.0610 o         1 MOL     -0.543148
     42 C15        -4.0980    4.0730   -2.8340 c3        1 MOL     -0.296551
     43 C16        -3.4320    2.6560   -3.0150 c         1 MOL      0.796954
     44 O7         -3.2920    1.8940   -2.0050 o         1 MOL     -0.694865
     45 O8         -2.9080    2.3830   -4.1060 o         1 MOL     -0.694865
     46 H19        -3.5490    3.1560   -0.2470 hn        1 MOL      0.040542
     47 H20        -4.8960    5.4690   -1.4750 h1        1 MOL      0.127325
     48 H21        -3.3110    4.8340   -2.8810 hc        1 MOL      0.081457
     49 H22        -4.8890    4.2490   -3.5610 hc        1 MOL      0.081457
     50 N4         -6.1950    2.5760   -0.5870 n         1 MOL     -0.081422
     51 C17        -7.5280    2.1730   -0.0770 c3        1 MOL     -0.256443
     52 C18        -8.1040    0.9410   -0.8350 c         1 MOL      0.621362
     53 O9         -9.0610    1.1200   -1.6260 o         1 MOL     -0.576597
     54 H23        -5.4490    1.9920   -0.2420 hn        1 MOL      0.110684
     55 H24        -8.1860    3.0080   -0.3400 h1        1 MOL      0.086925
     56 H25        -7.4150    2.1130    1.0060 h1        1 MOL      0.086925
     57 N5         -7.5190   -0.2370   -0.6500 n         1 MOL     -0.426829
     58 C19        -7.8050   -1.4480   -1.4690 c3        1 MOL     -0.032522
     59 C20        -7.7520   -2.7320   -0.5680 c         1 MOL      0.530188
     60 O10        -8.3900   -3.7400   -0.9360 o         1 MOL     -0.598032
     61 C21        -6.8310   -1.5190   -2.6400 c3        1 MOL     -0.075012
     62 C22        -5.3420   -1.4260   -2.2290 c         1 MOL      0.698527
     63 O11        -4.4810   -0.9560   -3.0710 o         1 MOL     -0.742329
     64 O12        -4.9080   -1.8060   -1.1350 o         1 MOL     -0.742329
     65 H26        -6.7580   -0.2850    0.0090 hn        1 MOL      0.185603
     66 H27        -8.8200   -1.3300   -1.8410 h1        1 MOL      0.081490
     67 H28        -7.0470   -0.7550   -3.3890 hc        1 MOL      0.048164
     68 H29        -6.8680   -2.4180   -3.2580 hc        1 MOL      0.048164
     69 N6         -7.0970   -2.7600    0.5840 n         1 MOL     -0.287127
     70 C23        -6.8740   -3.8640    1.5230 c3        1 MOL      0.019305
     71 C24        -5.5030   -4.4880    1.5790 c         1 MOL      0.543663
     72 O13        -5.2390   -5.4970    2.2330 o         1 MOL     -0.599093
     73 H30        -6.4530   -1.9790    0.6960 hn        1 MOL      0.215148
     74 H31        -7.6080   -4.6500    1.3560 h1        1 MOL      0.042529
     75 H32        -7.0130   -3.5390    2.5580 h1        1 MOL      0.042529
     76 N7         -4.4750   -3.8740    0.8680 n         1 MOL     -0.281155
     77 C25        -3.1200   -4.4220    0.8780 c3        1 MOL     -0.025335
     78 C26        -2.0240   -3.3490    0.9330 c         1 MOL      0.575921
     79 O14        -2.3050   -2.2090    0.6640 o         1 MOL     -0.642779
     80 C27        -2.9620   -5.3320   -0.3970 c3        1 MOL     -0.047797
     81 C28        -3.1890   -4.6610   -1.7330 c3        1 MOL     -0.221268
     82 C29        -1.9910   -3.8540   -2.1830 c         1 MOL      0.524716
     83 N8         -1.0320   -4.5440   -2.7170 n         1 MOL     -0.737354
     84 O15        -1.7670   -2.7090   -2.1250 o         1 MOL     -0.416033
     85 H33        -4.6260   -3.0720    0.2640 hn        1 MOL      0.217951
     86 H34        -3.0260   -5.1200    1.7160 h1        1 MOL      0.074985
     87 H35        -3.6910   -6.1480   -0.3820 hc        1 MOL      0.024965
     88 H36        -2.0490   -5.9100   -0.2700 hc        1 MOL      0.024965
     89 H37        -4.1460   -4.1410   -1.7630 hc        1 MOL      0.095313
     90 H38        -3.3480   -5.5240   -2.3800 hc        1 MOL      0.095313
     91 H39        -1.0340   -5.5550   -2.7590 hn        1 MOL      0.333441
     92 H40        -0.2140   -4.0170   -2.9790 hn        1 MOL      0.333441
     93 N9         -0.8230   -3.7270    1.2800 n         1 MOL     -0.517833
     94 C30         0.2910   -2.7730    1.6320 c3        1 MOL      0.159174
     95 C31         1.5380   -3.2800    0.9050 c         1 MOL      0.331026
     96 O16         2.1200   -4.2210    1.4000 o         1 MOL     -0.522723
     97 C32         0.4280   -2.7500    3.1450 c3        1 MOL      0.262017
     98 C33         1.5960   -1.8740    3.5770 c3        1 MOL     -0.300978
     99 C34        -0.8740   -2.4180    3.8440 c3        1 MOL     -0.300978
    100 H41        -0.7710   -4.6430    1.6830 hn        1 MOL      0.305767
    101 H42         0.0720   -1.7670    1.3110 h1        1 MOL      0.187032
    102 H43         0.6160   -3.8050    3.3600 hc        1 MOL     -0.056423
    103 H44         2.5050   -2.2710    3.1150 hc        1 MOL      0.059414
    104 H45         1.4110   -0.8800    3.1630 hc        1 MOL      0.059414
    105 H46         1.6500   -1.8470    4.6640 hc        1 MOL      0.059414
    106 H47        -0.6420   -2.2630    4.8970 hc        1 MOL      0.059414
    107 H48        -1.3010   -1.5090    3.4210 hc        1 MOL      0.059414
    108 H49        -1.6070   -3.2120    3.7040 hc        1 MOL      0.059414
    109 N10         1.8260   -2.6090   -0.2370 n         1 MOL     -0.191559
    110 C35         3.0590   -2.7000   -0.9510 c3        1 MOL      0.073395
    111 C36         4.2290   -2.2030   -0.1860 c         1 MOL      0.380698
    112 O17         4.0510   -1.5100    0.8510 o         1 MOL     -0.290494
    113 C37         2.9440   -2.1090   -2.3280 c3        1 MOL     -0.246746
    114 C38         2.0150   -2.6270   -3.3880 c         1 MOL      0.695087
    115 N11         0.7390   -2.2740   -3.2550 n         1 MOL     -0.807178
    116 O18         2.4010   -3.4720   -4.2260 o         1 MOL     -0.600138
    117 H50         1.0770   -1.9820   -0.5200 hn        1 MOL      0.137025
    118 H51         3.2660   -3.7560   -1.0810 h1        1 MOL      0.061804
    119 H52         3.8980   -2.1970   -2.8520 hc        1 MOL      0.066918
    120 H53         2.8170   -1.0170   -2.3460 hc        1 MOL      0.066918
    121 H54         0.4580   -1.6770   -2.4870 hn        1 MOL      0.376236
    122 H55         0.0940   -2.4420   -4.0060 hn        1 MOL      0.376236
    123 N12         5.5440   -2.3960   -0.6010 n         1 MOL     -0.543892
    124 C39         6.7490   -1.8380    0.0690 c3        1 MOL      0.217102
    125 C40         6.7990   -0.3060    0.0680 c         1 MOL      0.680955
    126 O19         6.8890    0.2870    1.1160 o         1 MOL     -0.591846
    127 C41         8.0530   -2.3340   -0.5560 c3        1 MOL     -0.125366
    128 C42         9.2340   -1.7830    0.1270 ca        1 MOL      0.030520
    129 C43         9.5700   -2.1320    1.4760 ca        1 MOL     -0.171992
    130 C44        10.0620   -0.9810   -0.7080 ca        1 MOL     -0.171992
    131 C45        10.8420   -1.7660    1.9530 ca        1 MOL     -0.238504
    132 C46        11.2720   -0.5340   -0.1620 ca        1 MOL     -0.238504
    133 C47        11.7210   -1.0550    1.0840 ca        1 MOL      0.327922
    134 O20        12.9900   -0.7260    1.4500 oh        1 MOL     -0.529995
    135 H56         5.6730   -2.9300   -1.4480 hn        1 MOL      0.295535
    136 H57         6.7550   -2.1560    1.1050 h1        1 MOL      0.015544
    137 H58         8.0410   -2.1110   -1.6240 hc        1 MOL      0.039060
    138 H59         8.0580   -3.4170   -0.5510 hc        1 MOL      0.039060
    139 H60         8.9010   -2.7490    2.0730 ha        1 MOL      0.147513
    140 H61         9.8600   -0.8340   -1.7640 ha        1 MOL      0.147513
    141 H62        11.0220   -1.9330    3.0050 ha        1 MOL      0.148448
    142 H63        11.8820    0.2190   -0.6270 ha        1 MOL      0.148448
    143 H64        13.3560   -0.0490    0.8760 ho        1 MOL      0.374437
    144 N13         6.5380    0.2780   -1.0990 n         1 MOL     -0.499947
    145 C48         6.3690    1.7250   -1.3010 c3        1 MOL     -0.015363
    146 C49         5.2040    2.3900   -0.5220 c         1 MOL      0.316765
    147 O21         5.1380    3.6260   -0.3890 o         1 MOL     -0.468043
    148 C50         6.1660    2.0890   -2.7610 c3        1 MOL      0.024311
    149 C51         7.4770    2.2790   -3.5960 c3        1 MOL     -0.105012
    150 C52         7.1820    2.5460   -5.1360 c         1 MOL      0.675955
    151 O22         7.8820    2.0130   -5.9820 o         1 MOL     -0.723655
    152 O23         6.1360    3.1910   -5.4360 o         1 MOL     -0.723655
    153 H65         6.4020   -0.3730   -1.8680 hn        1 MOL      0.288328
    154 H66         7.3070    2.2460   -1.1030 h1        1 MOL      0.109813
    155 H67         5.6650    3.0570   -2.8590 hc        1 MOL      0.031277
    156 H68         5.6050    1.3390   -3.3230 hc        1 MOL      0.031277
    157 H69         8.1300    1.4170   -3.4860 hc        1 MOL     -0.027305
    158 H70         8.0620    3.1280   -3.2300 hc        1 MOL     -0.027305
    159 N14         4.3610    1.5560    0.2400 n         1 MOL     -0.184945
    160 C53         3.3680    1.9870    1.2270 c3        1 MOL      0.057462
    161 C54         3.9470    1.7800    2.6880 c         1 MOL      0.413382
    162 O24         3.7520    2.6920    3.4820 o         1 MOL     -0.556172
    163 C55         2.0880    1.2470    1.0110 c3        1 MOL     -0.005103
    164 C56         1.5510    1.2260   -0.4300 c3        1 MOL      0.048820
    165 C57         0.1870    0.5820   -0.4190 c         1 MOL      0.535302
    166 O25        -0.7770    0.9500    0.2510 o         1 MOL     -0.646056
    167 O26         0.0400   -0.5550   -0.9620 o         1 MOL     -0.646056
    168 H71         4.4940    0.5520    0.1850 hn        1 MOL      0.126180
    169 H72         3.2230    3.0630    1.1400 h1        1 MOL      0.057455
    170 H73         1.3570    1.8110    1.5890 hc        1 MOL      0.024946
    171 H74         2.1770    0.2050    1.3220 hc        1 MOL      0.024946
    172 H75         2.1710    0.5840   -1.0510 hc        1 MOL     -0.025636
    173 H76         1.4340    2.2360   -0.8210 hc        1 MOL     -0.025636
    174 N15         4.5610    0.6530    2.9060 n         1 MOL     -0.037869
    175 C58         5.1020    0.2870    4.2620 c3        1 MOL     -0.203476
    176 H77         6.1860    0.1840    4.2050 h1        1 MOL      0.079473
    177 H78         4.8500    1.0690    4.9780 h1        1 MOL      0.079473
    178 H79         4.6660   -0.6580    4.5850 h1        1 MOL      0.079473
    179 H80         4.4340   -0.1240    2.2730 hn        1 MOL      0.075836
    180 Ca1        -2.6280   -0.3500   -1.1050 Ca        1 MOL      1.740941
    181 O27        -1.4820    0.1660   -3.5300 oh        1 MOL     -0.912952
    182 H81        -0.8910    0.1310   -4.2920 ho        1 MOL      0.412676
    183 H82        -2.0110    0.9520   -3.6880 ho        1 MOL      0.412676
@<TRIPOS>BOND
     1    1    2 1   
     2    1    4 1   
     3    1    5 1   
     4    1    6 1   
     5    2    3 2   
     6    2    7 1   
     7    7    8 1   
     8    7   15 1   
     9    8    9 1   
    10    8   11 1   
    11    8   16 1   
    12    9   10 2   
    13    9   19 1   
    14   11   12 1   
    15   11   17 1   
    16   11   18 1   
    17   12   13 1   
    18   12   14 1   
    19   19   20 1   
    20   19   27 1   
    21   20   21 1   
    22   20   23 1   
    23   20   28 1   
    24   21   22 2   
    25   21   38 1   
    26   23   24 1   
    27   23   25 1   
    28   23   29 1   
    29   24   26 1   
    30   24   30 1   
    31   24   31 1   
    32   25   32 1   
    33   25   33 1   
    34   25   34 1   
    35   26   35 1   
    36   26   36 1   
    37   26   37 1   
    38   38   39 1   
    39   38   46 1   
    40   39   40 1   
    41   39   42 1   
    42   39   47 1   
    43   40   41 2   
    44   40   50 1   
    45   42   43 1   
    46   42   48 1   
    47   42   49 1   
    48   43   44 1   
    49   43   45 1   
    50   50   51 1   
    51   50   54 1   
    52   51   52 1   
    53   51   55 1   
    54   51   56 1   
    55   52   53 2   
    56   52   57 1   
    57   57   58 1   
    58   57   65 1   
    59   58   59 1   
    60   58   61 1   
    61   58   66 1   
    62   59   60 2   
    63   59   69 1   
    64   61   62 1   
    65   61   67 1   
    66   61   68 1   
    67   62   63 1   
    68   62   64 1   
    69   69   70 1   
    70   69   73 1   
    71   70   71 1   
    72   70   74 1   
    73   70   75 1   
    74   71   72 2   
    75   71   76 1   
    76   76   77 1   
    77   76   85 1   
    78   77   78 1   
    79   77   80 1   
    80   77   86 1   
    81   78   79 2   
    82   78   93 1   
    83   80   81 1   
    84   80   87 1   
    85   80   88 1   
    86   81   82 1   
    87   81   89 1   
    88   81   90 1   
    89   82   83 1   
    90   82   84 2   
    91   83   91 1   
    92   83   92 1   
    93   93   94 1   
    94   93  100 1   
    95   94   95 1   
    96   94   97 1   
    97   94  101 1   
    98   95   96 2   
    99   95  109 1   
   100   97   98 1   
   101   97   99 1   
   102   97  102 1   
   103   98  103 1   
   104   98  104 1   
   105   98  105 1   
   106   99  106 1   
   107   99  107 1   
   108   99  108 1   
   109  109  110 1   
   110  109  117 1   
   111  110  111 1   
   112  110  113 1   
   113  110  118 1   
   114  111  112 2   
   115  111  123 1   
   116  113  114 1   
   117  113  119 1   
   118  113  120 1   
   119  114  115 1   
   120  114  116 2   
   121  115  121 1   
   122  115  122 1   
   123  123  124 1   
   124  123  135 1   
   125  124  125 1   
   126  124  127 1   
   127  124  136 1   
   128  125  126 2   
   129  125  144 1   
   130  127  128 1   
   131  127  137 1   
   132  127  138 1   
   133  128  129 ar  
   134  128  130 ar  
   135  129  131 ar  
   136  129  139 1   
   137  130  132 ar  
   138  130  140 1   
   139  131  133 ar  
   140  131  141 1   
   141  132  133 ar  
   142  132  142 1   
   143  133  134 1   
   144  134  143 1   
   145  144  145 1   
   146  144  153 1   
   147  145  146 1   
   148  145  148 1   
   149  145  154 1   
   150  146  147 2   
   151  146  159 1   
   152  148  149 1   
   153  148  155 1   
   154  148  156 1   
   155  149  150 1   
   156  149  157 1   
   157  149  158 1   
   158  150  151 1   
   159  150  152 1   
   160  159  160 1   
   161  159  168 1   
   162  160  161 1   
   163  160  163 1   
   164  160  169 1   
   165  161  162 2   
   166  161  174 1   
   167  163  164 1   
   168  163  170 1   
   169  163  171 1   
   170  164  165 1   
   171  164  172 1   
   172  164  173 1   
   173  165  166 1   
   174  165  167 1   
   175  174  175 1   
   176  174  179 1   
   177  175  176 1   
   178  175  177 1   
   179  175  178 1   
   180  181  182 1   
   181  181  183 1   
@<TRIPOS>SUBSTRUCTURE
     1 MOL         1 TEMP              0 ****  ****    0 ROOT
