@<TRIPOS>MOLECULE
MOL
  189   185     1     0     0
SMALL
resp


@<TRIPOS>ATOM
      1 C1         -1.7110    1.1770    6.6080 c3        1 MOL     -0.262176
      2 C2         -1.6190    1.2950    5.0670 c         1 MOL      0.595348
      3 O1         -0.7220    1.9720    4.5320 o         1 MOL     -0.581377
      4 H1         -1.7060    0.1240    6.8920 hc        1 MOL      0.074692
      5 H2         -0.8590    1.6800    7.0630 hc        1 MOL      0.074692
      6 H3         -2.6350    1.6410    6.9540 hc        1 MOL      0.074692
      7 N1         -2.6210    0.7980    4.3500 n         1 MOL     -0.574543
      8 C3         -2.8200    0.9970    2.8830 c3        1 MOL     -0.119802
      9 C4         -3.1870    2.4410    2.5870 c         1 MOL      0.930453
     10 O2         -3.9900    3.0300    3.2050 o         1 MOL     -0.679406
     11 C5         -3.9340   -0.0680    2.3700 c3        1 MOL      0.154089
     12 C6         -4.3120    0.2560    0.9220 c         1 MOL      0.083685
     13 O3         -5.4710    0.6030    0.8050 o         1 MOL     -0.469832
     14 O4         -3.6070   -0.0050   -0.0960 o         1 MOL     -0.469832
     15 H4         -3.3470    0.2760    4.8160 hn        1 MOL      0.334860
     16 H5         -1.8970    0.7710    2.3550 h1        1 MOL      0.099660
     17 H6         -4.7410    0.0040    3.0890 hc        1 MOL      0.011420
     18 H7         -3.5210   -1.0680    2.4200 hc        1 MOL      0.011420
     19 N2         -2.5800    3.0590    1.6180 n         1 MOL     -0.375847
     20 C7         -2.7120    4.5350    1.2220 c3        1 MOL      0.281732
     21 C8         -3.7020    4.8180    0.0200 c         1 MOL      0.317193
     22 O5         -4.5390    5.7090    0.1330 o         1 MOL     -0.518892
     23 C9         -1.2450    4.9310    0.8340 c3        1 MOL     -0.231958
     24 C10        -0.2050    4.8150    1.9450 c3        1 MOL      0.155261
     25 C11        -0.5190    5.6650    3.1590 c3        1 MOL     -0.148211
     26 C12        -1.4180    5.0670    4.2150 c3        1 MOL      0.099207
     27 N3         -0.6950    4.9760    5.4870 n4        1 MOL     -0.553235
     28 H8         -1.8230    2.4780    1.2850 hn        1 MOL      0.101806
     29 H9         -3.1090    5.1930    1.9930 h1        1 MOL      0.011702
     30 H10        -1.3620    5.9570    0.4800 hc        1 MOL      0.054929
     31 H11        -0.9500    4.2750    0.0100 hc        1 MOL      0.054929
     32 H12         0.7770    5.0940    1.5470 hc        1 MOL      0.006417
     33 H13        -0.0670    3.7700    2.2240 hc        1 MOL      0.006417
     34 H14        -1.0580    6.5610    2.8250 hc        1 MOL      0.037290
     35 H15         0.4030    5.9510    3.6530 hc        1 MOL      0.037290
     36 H16        -1.9440    4.2170    3.7820 hx        1 MOL      0.078326
     37 H17        -2.3440    5.6390    4.3110 hx        1 MOL      0.078326
     38 H18         0.1980    4.5290    5.3440 hn        1 MOL      0.371945
     39 H19        -0.5260    5.8820    5.9160 hn        1 MOL      0.371945
     40 H20        -1.2580    4.4630    6.1500 hn        1 MOL      0.371945
     41 N4         -3.5340    4.0650   -1.0800 n         1 MOL     -0.127111
     42 C13        -4.0840    4.1640   -2.4240 c3        1 MOL     -0.023091
     43 C14        -5.3280    3.1850   -2.6360 c         1 MOL      0.407109
     44 O6         -5.9430    3.0500   -3.7220 o         1 MOL     -0.498932
     45 C15        -3.0010    3.9890   -3.4950 c3        1 MOL     -0.185670
     46 C16        -2.1220    2.7770   -3.4110 c         1 MOL      0.878769
     47 O7         -2.2080    2.0170   -2.4390 o         1 MOL     -0.730852
     48 O8         -1.3230    2.5330   -4.3400 o         1 MOL     -0.730852
     49 H21        -2.7080    3.4900   -1.1160 hn        1 MOL      0.091889
     50 H22        -4.5230    5.1650   -2.4920 h1        1 MOL      0.091457
     51 H23        -2.2390    4.7700   -3.4890 hc        1 MOL      0.044450
     52 H24        -3.5110    3.9520   -4.4560 hc        1 MOL      0.044450
     53 N5         -5.8010    2.5200   -1.5580 n         1 MOL     -0.226606
     54 C17        -7.1820    2.0370   -1.5030 c3        1 MOL     -0.151336
     55 C18        -7.3630    0.6940   -2.2550 c         1 MOL      0.558454
     56 O9         -8.4010    0.5430   -2.7740 o         1 MOL     -0.563675
     57 H25        -5.2340    2.4460   -0.7220 hn        1 MOL      0.244770
     58 H26        -7.7190    2.7720   -2.0960 h1        1 MOL      0.094217
     59 H27        -7.7240    2.1180   -0.5640 h1        1 MOL      0.094217
     60 N6         -6.4230   -0.2120   -2.0880 n         1 MOL     -0.113807
     61 C19        -6.4930   -1.6090   -2.4300 c3        1 MOL      0.082053
     62 C20        -6.5070   -2.5120   -1.2010 c         1 MOL      0.357561
     63 O10        -6.9220   -3.6670   -1.2810 o         1 MOL     -0.516083
     64 C21        -5.4770   -1.9760   -3.5380 c3        1 MOL     -0.225114
     65 C22        -4.0720   -1.6090   -3.0280 c         1 MOL      0.732131
     66 O11        -3.5440   -2.2060   -2.0880 o         1 MOL     -0.740123
     67 O12        -3.4350   -0.6360   -3.5180 o         1 MOL     -0.740123
     68 H28        -5.6450   -0.0420   -1.4770 hn        1 MOL     -0.002758
     69 H29        -7.4740   -1.7160   -2.8890 h1        1 MOL      0.069194
     70 H30        -5.6520   -1.4750   -4.4910 hc        1 MOL      0.073372
     71 H31        -5.4400   -3.0560   -3.6140 hc        1 MOL      0.073372
     72 N7         -6.0900   -2.0300   -0.0160 n         1 MOL     -0.158048
     73 C23        -6.0200   -2.8840    1.1780 c3        1 MOL     -0.184779
     74 C24        -4.8970   -3.9430    1.1760 c         1 MOL      0.365748
     75 O13        -5.0370   -4.9140    1.9410 o         1 MOL     -0.541936
     76 H32        -5.7280   -1.0860   -0.0200 hn        1 MOL      0.127909
     77 H33        -6.9690   -3.3860    1.3340 h1        1 MOL      0.129397
     78 H34        -5.9350   -2.2190    2.0310 h1        1 MOL      0.129397
     79 N8         -3.8320   -3.6530    0.4400 n         1 MOL      0.102749
     80 C25        -2.6090   -4.3610    0.3610 c3        1 MOL     -0.358407
     81 C26        -1.3390   -3.5240    0.4750 c         1 MOL      0.704013
     82 O14        -1.3030   -2.3410    0.0750 o         1 MOL     -0.625252
     83 C27        -2.5610   -5.2390   -0.9080 c3        1 MOL      0.350073
     84 C28        -3.7520   -6.2050   -1.1010 c3        1 MOL     -0.303608
     85 O15        -2.3850   -4.4990   -2.1100 oh        1 MOL     -0.660601
     86 H35        -3.8540   -2.7920   -0.0950 hn        1 MOL      0.113360
     87 H36        -2.6380   -5.0870    1.1730 h1        1 MOL      0.102078
     88 H37        -1.7540   -5.9660   -0.9840 h1        1 MOL      0.010117
     89 H38        -2.7850   -3.6300   -2.0000 ho        1 MOL      0.475490
     90 H39        -3.8330   -6.8100   -0.1990 hc        1 MOL      0.083103
     91 H40        -4.6570   -5.6160   -1.2600 hc        1 MOL      0.083103
     92 H41        -3.7900   -6.9070   -1.9290 hc        1 MOL      0.083103
     93 N9         -0.2300   -4.0840    0.8850 n         1 MOL     -0.587200
     94 C29         0.9510   -3.3780    1.3780 c3        1 MOL      0.157775
     95 C30         2.2110   -3.5700    0.5010 c         1 MOL      0.556189
     96 O16         2.9540   -4.4800    0.8130 o         1 MOL     -0.541536
     97 C31         1.1310   -3.8460    2.8560 c3        1 MOL     -0.057182
     98 C32        -0.0680   -3.5300    3.7880 c3        1 MOL     -0.101692
     99 C33         2.3950   -3.3740    3.5940 c3        1 MOL     -0.165736
    100 C34        -0.5860   -2.1210    3.8730 c3        1 MOL     -0.103911
    101 H42        -0.1940   -5.0830    1.0590 hn        1 MOL      0.303341
    102 H43         0.7790   -2.3010    1.4570 h1        1 MOL      0.089843
    103 H44         1.3530   -4.9070    2.8340 hc        1 MOL      0.037486
    104 H45         0.0590   -3.9430    4.7930 hc        1 MOL      0.035237
    105 H46        -0.9570   -4.0670    3.4830 hc        1 MOL      0.035237
    106 H47         2.4430   -2.2850    3.5360 hc        1 MOL      0.055100
    107 H48         2.3800   -3.6470    4.6470 hc        1 MOL      0.055100
    108 H49         3.2650   -3.8450    3.1320 hc        1 MOL      0.055100
    109 H50        -0.9310   -1.6960    2.9300 hc        1 MOL      0.053374
    110 H51        -1.4480   -2.0570    4.5260 hc        1 MOL      0.053374
    111 H52         0.2540   -1.5870    4.3110 hc        1 MOL      0.053374
    112 N10         2.4360   -2.7350   -0.4850 n         1 MOL     -0.365010
    113 C35         3.6970   -2.6220   -1.3250 c3        1 MOL     -0.075614
    114 C36         5.0380   -2.5620   -0.5590 c         1 MOL      0.352604
    115 O17         5.0550   -2.2240    0.6630 o         1 MOL     -0.310099
    116 C37         3.6720   -1.3860   -2.2380 c3        1 MOL      0.148679
    117 C38         2.5120   -1.3170   -3.3040 c3        1 MOL     -0.257656
    118 O18         3.4360   -0.2050   -1.4490 oh        1 MOL     -0.508881
    119 H53         1.7790   -1.9750   -0.6390 hn        1 MOL      0.292844
    120 H54         3.7280   -3.5750   -1.8540 h1        1 MOL      0.106661
    121 H55         4.6120   -1.3270   -2.7910 h1        1 MOL      0.057115
    122 H56         2.5260   -0.2990   -1.1560 ho        1 MOL      0.342864
    123 H57         2.2700   -0.3070   -3.6300 hc        1 MOL      0.065723
    124 H58         2.7190   -1.9860   -4.1390 hc        1 MOL      0.065723
    125 H59         1.6270   -1.7400   -2.8350 hc        1 MOL      0.065723
    126 N11         6.1110   -2.6690   -1.2470 n         1 MOL     -0.333799
    127 C39         7.4120   -2.1760   -0.7140 c3        1 MOL     -0.066434
    128 C40         7.4860   -0.7750   -0.2270 c         1 MOL      0.455153
    129 O19         8.2560   -0.5770    0.6690 o         1 MOL     -0.500842
    130 C41         8.4430   -2.2680   -1.8780 c3        1 MOL      0.125806
    131 C42         8.8380   -3.6700   -2.3180 c3        1 MOL     -0.240858
    132 O20         7.8690   -1.6920   -2.9790 oh        1 MOL     -0.602865
    133 H60         6.0300   -2.6570   -2.2510 hn        1 MOL      0.291166
    134 H61         7.7230   -2.8280    0.1070 h1        1 MOL      0.149191
    135 H62         9.3560   -1.7520   -1.5640 h1        1 MOL      0.080162
    136 H63         8.4970   -1.1230   -3.4420 ho        1 MOL      0.416811
    137 H64         9.3150   -4.2840   -1.5560 hc        1 MOL      0.080834
    138 H65         8.0090   -4.2470   -2.7300 hc        1 MOL      0.080834
    139 H66         9.6330   -3.6760   -3.0700 hc        1 MOL      0.080834
    140 N12         6.7440    0.2570   -0.7700 n         1 MOL     -0.401510
    141 C43         6.6780    1.6760   -0.1910 c3        1 MOL     -0.058196
    142 C44         5.7130    1.8260    1.0220 c         1 MOL      0.437802
    143 O21         5.8210    2.7900    1.7840 o         1 MOL     -0.552516
    144 C45         6.4850    2.7130   -1.2920 c3        1 MOL     -0.105439
    145 C46         7.7920    3.0260   -2.0650 c3        1 MOL      0.103308
    146 C47         7.6170    4.0570   -3.1590 c3        1 MOL     -0.111485
    147 C48         8.8800    4.1970   -3.9830 c3        1 MOL      0.069118
    148 N13         8.8470    5.4330   -4.8150 n4        1 MOL     -0.278886
    149 H67         6.1110    0.0160   -1.5320 hn        1 MOL      0.258574
    150 H68         7.6350    1.9440    0.2540 h1        1 MOL      0.130094
    151 H69         6.0880    3.6230   -0.8550 hc        1 MOL      0.060814
    152 H70         5.6940    2.3940   -1.9860 hc        1 MOL      0.060814
    153 H71         8.1410    2.1550   -2.6100 hc        1 MOL      0.007422
    154 H72         8.5320    3.2840   -1.3080 hc        1 MOL      0.007422
    155 H73         7.4790    5.0390   -2.7070 hc        1 MOL      0.049302
    156 H74         6.7070    3.8950   -3.7360 hc        1 MOL      0.049302
    157 H75         8.9860    3.3450   -4.6630 hx        1 MOL      0.074287
    158 H76         9.7500    4.1260   -3.3350 hx        1 MOL      0.074287
    159 H77         8.6840    6.2900   -4.3080 hn        1 MOL      0.306638
    160 H78         9.5830    5.5370   -5.4980 hn        1 MOL      0.306638
    161 H79         8.0210    5.4330   -5.3960 hn        1 MOL      0.306638
    162 N14         4.8450    0.8790    1.2890 n         1 MOL     -0.036481
    163 C49         3.9620    0.7770    2.4670 c3        1 MOL     -0.242692
    164 C50         4.5220   -0.1370    3.6010 c         1 MOL      0.523708
    165 O22         4.1930    0.0540    4.7730 o         1 MOL     -0.557449
    166 C51         2.5960    0.2700    2.0070 c3        1 MOL      0.147639
    167 C52         1.8390    1.2460    1.0950 c3        1 MOL     -0.061079
    168 C53         0.6960    0.5610    0.2770 c         1 MOL      0.645896
    169 O23         0.9250   -0.4560   -0.3910 o         1 MOL     -0.645053
    170 O24        -0.4360    1.0320    0.4300 o         1 MOL     -0.645053
    171 H80         4.5960    0.2760    0.5120 hn        1 MOL      0.125615
    172 H81         3.8550    1.7780    2.8780 h1        1 MOL      0.122407
    173 H82         1.9470   -0.0480    2.8230 hc        1 MOL     -0.002388
    174 H83         2.6970   -0.5990    1.3550 hc        1 MOL     -0.002388
    175 H84         2.4900    1.6540    0.3200 hc        1 MOL     -0.015712
    176 H85         1.3960    2.0130    1.7230 hc        1 MOL     -0.015712
    177 N15         5.3110   -1.2070    3.2930 n         1 MOL     -0.247268
    178 C54         5.8830   -2.2790    4.1790 c3        1 MOL     -0.276247
    179 H86         5.2430   -3.1600    4.1400 h1        1 MOL      0.119828
    180 H87         6.8820   -2.5410    3.8340 h1        1 MOL      0.119828
    181 H88         5.9350   -1.9130    5.2040 h1        1 MOL      0.119828
    182 H89         5.4760   -1.3180    2.3030 hn        1 MOL      0.150780
    183 Ca1        -1.6640   -0.2270   -1.5660 Ca        1 MOL      1.695733
    184 O25         0.0980    0.5750   -3.6920 oh        1 MOL     -0.807906
    185 H90         0.2600    0.1770   -4.5460 ho        1 MOL      0.383200
    186 H91        -0.4970    1.3080   -3.8850 ho        1 MOL      0.383200
    187 O26        -0.7210   -2.2220   -3.1040 oh        1 MOL     -0.807906
    188 H92        -1.0620   -3.0950   -3.3100 ho        1 MOL      0.383200
    189 H93        -0.6020   -1.8070   -3.9650 ho        1 MOL      0.383200
@<TRIPOS>BOND
     1    1    2 1   
     2    1    4 1   
     3    1    5 1   
     4    1    6 1   
     5    2    3 2   
     6    2    7 1   
     7    7    8 1   
     8    7   15 1   
     9    8    9 1   
    10    8   11 1   
    11    8   16 1   
    12    9   10 2   
    13    9   19 1   
    14   11   12 1   
    15   11   17 1   
    16   11   18 1   
    17   12   13 1   
    18   12   14 1   
    19   19   20 1   
    20   19   28 1   
    21   20   21 1   
    22   20   23 1   
    23   20   29 1   
    24   21   22 2   
    25   21   41 1   
    26   23   24 1   
    27   23   30 1   
    28   23   31 1   
    29   24   25 1   
    30   24   32 1   
    31   24   33 1   
    32   25   26 1   
    33   25   34 1   
    34   25   35 1   
    35   26   27 1   
    36   26   36 1   
    37   26   37 1   
    38   27   38 1   
    39   27   39 1   
    40   27   40 1   
    41   41   42 1   
    42   41   49 1   
    43   42   43 1   
    44   42   45 1   
    45   42   50 1   
    46   43   44 2   
    47   43   53 1   
    48   45   46 1   
    49   45   51 1   
    50   45   52 1   
    51   46   47 1   
    52   46   48 1   
    53   53   54 1   
    54   53   57 1   
    55   54   55 1   
    56   54   58 1   
    57   54   59 1   
    58   55   56 2   
    59   55   60 1   
    60   60   61 1   
    61   60   68 1   
    62   61   62 1   
    63   61   64 1   
    64   61   69 1   
    65   62   63 2   
    66   62   72 1   
    67   64   65 1   
    68   64   70 1   
    69   64   71 1   
    70   65   66 1   
    71   65   67 1   
    72   72   73 1   
    73   72   76 1   
    74   73   74 1   
    75   73   77 1   
    76   73   78 1   
    77   74   75 2   
    78   74   79 1   
    79   79   80 1   
    80   79   86 1   
    81   80   81 1   
    82   80   83 1   
    83   80   87 1   
    84   81   82 2   
    85   81   93 1   
    86   83   84 1   
    87   83   85 1   
    88   83   88 1   
    89   84   90 1   
    90   84   91 1   
    91   84   92 1   
    92   85   89 1   
    93   93   94 1   
    94   93  101 1   
    95   94   95 1   
    96   94   97 1   
    97   94  102 1   
    98   95   96 2   
    99   95  112 1   
   100   97   98 1   
   101   97   99 1   
   102   97  103 1   
   103   98  100 1   
   104   98  104 1   
   105   98  105 1   
   106   99  106 1   
   107   99  107 1   
   108   99  108 1   
   109  100  109 1   
   110  100  110 1   
   111  100  111 1   
   112  112  113 1   
   113  112  119 1   
   114  113  114 1   
   115  113  116 1   
   116  113  120 1   
   117  114  115 2   
   118  114  126 1   
   119  116  117 1   
   120  116  118 1   
   121  116  121 1   
   122  117  123 1   
   123  117  124 1   
   124  117  125 1   
   125  118  122 1   
   126  126  127 1   
   127  126  133 1   
   128  127  128 1   
   129  127  130 1   
   130  127  134 1   
   131  128  129 2   
   132  128  140 1   
   133  130  131 1   
   134  130  132 1   
   135  130  135 1   
   136  131  137 1   
   137  131  138 1   
   138  131  139 1   
   139  132  136 1   
   140  140  141 1   
   141  140  149 1   
   142  141  142 1   
   143  141  144 1   
   144  141  150 1   
   145  142  143 2   
   146  142  162 1   
   147  144  145 1   
   148  144  151 1   
   149  144  152 1   
   150  145  146 1   
   151  145  153 1   
   152  145  154 1   
   153  146  147 1   
   154  146  155 1   
   155  146  156 1   
   156  147  148 1   
   157  147  157 1   
   158  147  158 1   
   159  148  159 1   
   160  148  160 1   
   161  148  161 1   
   162  162  163 1   
   163  162  171 1   
   164  163  164 1   
   165  163  166 1   
   166  163  172 1   
   167  164  165 2   
   168  164  177 1   
   169  166  167 1   
   170  166  173 1   
   171  166  174 1   
   172  167  168 1   
   173  167  175 1   
   174  167  176 1   
   175  168  169 1   
   176  168  170 1   
   177  177  178 1   
   178  177  182 1   
   179  178  179 1   
   180  178  180 1   
   181  178  181 1   
   182  184  185 1   
   183  184  186 1   
   184  187  188 1   
   185  187  189 1   
@<TRIPOS>SUBSTRUCTURE
     1 MOL         1 TEMP              0 ****  ****    0 ROOT
