@<TRIPOS>MOLECULE
MOL
  179   176     1     0     0
SMALL
resp


@<TRIPOS>ATOM
      1 C1          3.6110   -5.8410    4.2650 c3        1 MOL     -0.364417
      2 C2          3.3690   -5.1660    2.9240 c         1 MOL      0.760936
      3 O1          2.8910   -5.7410    1.9180 o         1 MOL     -0.615302
      4 H1          4.6740   -6.0530    4.3770 hc        1 MOL      0.089070
      5 H2          3.2860   -5.1810    5.0690 hc        1 MOL      0.089070
      6 H3          3.0490   -6.7740    4.3090 hc        1 MOL      0.089070
      7 N1          3.6480   -3.9090    2.8440 n         1 MOL     -0.535735
      8 C3          3.3460   -2.8830    1.7830 c3        1 MOL      0.297949
      9 C4          4.6150   -2.6930    0.8660 c         1 MOL      0.406852
     10 O2          5.3350   -1.6470    0.8240 o         1 MOL     -0.478321
     11 C5          2.5310   -1.6880    2.3000 c3        1 MOL     -0.219544
     12 C6          1.9360   -0.8700    1.1560 c         1 MOL      0.843832
     13 O3          0.9850   -1.3290    0.4410 o         1 MOL     -0.787676
     14 O4          2.4540    0.2360    0.9380 o         1 MOL     -0.787676
     15 H4          3.9150   -3.4520    3.7130 hn        1 MOL      0.255095
     16 H5          2.5410   -3.3430    1.2060 h1        1 MOL      0.041603
     17 H6          3.2890   -1.0190    2.7030 hc        1 MOL      0.035380
     18 H7          1.7740   -1.9480    3.0380 hc        1 MOL      0.035380
     19 N2          4.9090   -3.7820    0.1460 n         1 MOL     -0.440897
     20 C7          6.2760   -3.9940   -0.3810 c3        1 MOL      0.038247
     21 C8          6.6610   -2.9830   -1.4340 c         1 MOL      0.390338
     22 O5          7.7570   -2.8230   -1.8330 o         1 MOL     -0.530000
     23 C9          6.2730   -5.3700   -0.9690 c3        1 MOL     -0.093529
     24 C10         5.5920   -6.4470   -0.1260 c3        1 MOL      0.007348
     25 C11         6.2860   -6.9260    1.1620 c3        1 MOL     -0.164939
     26 C12         5.7850   -8.2500    1.7540 c3        1 MOL      0.123171
     27 N3          6.5470   -8.8600    2.7830 n4        1 MOL     -0.375066
     28 H8          4.2790   -4.5590    0.2170 hn        1 MOL      0.277604
     29 H9          6.9880   -3.9920    0.4470 h1        1 MOL      0.087046
     30 H10         7.3240   -5.6220   -1.0900 hc        1 MOL      0.071057
     31 H11         5.7910   -5.4170   -1.9470 hc        1 MOL      0.071057
     32 H12         5.6280   -7.3650   -0.7200 hc        1 MOL      0.037811
     33 H13         4.5710   -6.1280    0.0540 hc        1 MOL      0.037811
     34 H14         6.1370   -6.1460    1.8950 hc        1 MOL      0.045242
     35 H15         7.3500   -7.0330    0.9640 hc        1 MOL      0.045242
     36 H16         5.5770   -8.9170    0.9170 hx        1 MOL      0.065897
     37 H17         4.7220   -8.2170    1.9760 hx        1 MOL      0.065897
     38 H18         6.4410   -9.8650    2.7660 hn        1 MOL      0.331878
     39 H19         7.5410   -8.7120    2.6860 hn        1 MOL      0.331878
     40 H20         6.3010   -8.6500    3.7410 hn        1 MOL      0.331878
     41 N4          5.7080   -2.2520   -1.9930 n         1 MOL     -0.216520
     42 C13         5.9260   -1.1670   -3.0160 c3        1 MOL     -0.071332
     43 C14         6.3860    0.1760   -2.3480 c         1 MOL      0.541919
     44 O6          6.8200    1.0820   -3.0430 o         1 MOL     -0.547274
     45 C15         4.6400   -0.9250   -3.7040 c3        1 MOL     -0.114342
     46 C16         3.3920   -0.5720   -2.7500 c         1 MOL      0.717749
     47 O7          3.5000    0.3810   -1.9350 o         1 MOL     -0.701083
     48 O8          2.4280   -1.3020   -2.6580 o         1 MOL     -0.701083
     49 H21         4.7490   -2.3360   -1.6770 hn        1 MOL      0.196530
     50 H22         6.6410   -1.5090   -3.7560 h1        1 MOL      0.141253
     51 H23         4.3590   -1.8120   -4.2770 hc        1 MOL      0.028639
     52 H24         4.7740   -0.1590   -4.4620 hc        1 MOL      0.028639
     53 N5          6.5750    0.2170   -1.0150 n         1 MOL     -0.374718
     54 C17         7.0840    1.3830   -0.2460 c3        1 MOL     -0.042952
     55 C18         6.2880    2.6530   -0.3080 c         1 MOL      0.334138
     56 O9          6.8190    3.7130    0.0960 o         1 MOL     -0.554574
     57 H25         6.1900   -0.4510   -0.3500 hn        1 MOL      0.291040
     58 H26         8.1100    1.5810   -0.5510 h1        1 MOL      0.094627
     59 H27         7.3340    1.2380    0.8010 h1        1 MOL      0.094627
     60 N6          5.1970    2.7460   -1.0430 n         1 MOL     -0.045720
     61 C19         4.4710    4.0130   -1.2840 c3        1 MOL     -0.038538
     62 C20         4.0300    4.7900   -0.0510 c         1 MOL      0.331520
     63 O10         3.8930    6.0220   -0.0790 o         1 MOL     -0.481718
     64 C21         3.4510    3.8070   -2.3820 c3        1 MOL     -0.231824
     65 C22         1.9670    3.9790   -1.9830 c         1 MOL      0.818300
     66 N7          1.1670    4.9060   -2.4580 n         1 MOL     -0.802536
     67 O11         1.5170    3.1070   -1.2570 o         1 MOL     -0.757402
     68 H28         4.8350    1.9040   -1.4500 hn        1 MOL      0.143250
     69 H29         5.1880    4.7610   -1.6010 h1        1 MOL      0.123270
     70 H30         3.5430    2.8260   -2.8710 hc        1 MOL      0.065744
     71 H31         3.5040    4.6530   -3.0600 hc        1 MOL      0.065744
     72 H32         1.5970    5.7310   -2.8700 hn        1 MOL      0.377098
     73 H33         0.1850    4.9280   -2.2050 hn        1 MOL      0.377098
     74 N8          3.8990    4.1360    1.1170 n         1 MOL     -0.043758
     75 C23         3.4630    4.6550    2.3890 c3        1 MOL     -0.465742
     76 C24         1.9410    4.6550    2.5750 c         1 MOL      0.644852
     77 O12         1.4660    5.0080    3.6670 o         1 MOL     -0.595092
     78 H34         4.0890    3.1440    1.0840 hn        1 MOL      0.216863
     79 H35         3.8220    5.6710    2.5490 h1        1 MOL      0.183513
     80 H36         3.7800    3.9940    3.1890 h1        1 MOL      0.183513
     81 N9          1.1330    4.0480    1.6740 n         1 MOL     -0.183901
     82 C25        -0.2680    3.8990    1.7550 c3        1 MOL      0.014957
     83 C26        -0.8330    2.4710    1.4680 c         1 MOL      0.301859
     84 O13        -0.2290    1.6910    0.7520 o         1 MOL     -0.471814
     85 C27        -1.0570    4.8870    0.8360 c3        1 MOL     -0.007068
     86 C28        -0.8090    6.3600    0.9280 ca        1 MOL      0.019248
     87 C29         0.2520    6.9950    0.2810 ca        1 MOL     -0.132176
     88 C30        -1.7300    7.1660    1.6320 ca        1 MOL     -0.132176
     89 C31         0.4120    8.3840    0.3680 ca        1 MOL     -0.332203
     90 C32        -1.5030    8.5920    1.8230 ca        1 MOL     -0.332203
     91 C33        -0.4050    9.1600    1.2060 ca        1 MOL      0.442843
     92 O14        -0.3540   10.5070    1.2480 oh        1 MOL     -0.503858
     93 H37         1.6190    3.6380    0.8800 hn        1 MOL      0.146994
     94 H38        -0.5720    4.0870    2.7890 h1        1 MOL      0.052281
     95 H39        -2.1210    4.7280    0.6870 hc        1 MOL      0.021876
     96 H40        -0.7280    4.6440   -0.1770 hc        1 MOL      0.021876
     97 H41         0.8770    6.3800   -0.3530 ha        1 MOL      0.109857
     98 H42        -2.5640    6.6850    2.1130 ha        1 MOL      0.109857
     99 H43         1.1480    8.8990   -0.2240 ha        1 MOL      0.164908
    100 H44        -2.2540    9.1010    2.4040 ha        1 MOL      0.164908
    101 H45        -1.1170   10.8020    1.7490 ho        1 MOL      0.346941
    102 N10        -2.0180    2.2540    1.9800 n         1 MOL     -0.094717
    103 C34        -2.9260    1.1620    1.4660 c3        1 MOL     -0.373739
    104 C35        -4.3000    1.6630    1.1960 c         1 MOL      0.556313
    105 O15        -4.8480    2.4410    1.9950 o         1 MOL     -0.561040
    106 C36        -2.9530   -0.0950    2.3880 c3        1 MOL      0.042867
    107 C37        -3.3820    0.2890    3.8440 c3        1 MOL      0.407262
    108 C38        -1.5510   -0.7830    2.3230 c3        1 MOL     -0.461118
    109 C39        -3.3410   -0.8410    4.8880 c3        1 MOL     -0.471398
    110 H46        -2.3390    2.8590    2.7170 hn        1 MOL      0.223890
    111 H47        -2.5030    0.8760    0.5070 h1        1 MOL      0.196119
    112 H48        -3.7540   -0.7620    2.0750 hc        1 MOL     -0.067163
    113 H49        -4.4280    0.5890    3.9150 hc        1 MOL     -0.061050
    114 H50        -2.7730    1.1080    4.2280 hc        1 MOL     -0.061050
    115 H51        -1.3060   -0.9570    1.2800 hc        1 MOL      0.138759
    116 H52        -0.8560   -0.0430    2.7180 hc        1 MOL      0.138759
    117 H53        -1.4080   -1.6940    2.8930 hc        1 MOL      0.138759
    118 H54        -3.6300   -1.8240    4.5090 hc        1 MOL      0.100816
    119 H55        -2.3160   -0.9560    5.2360 hc        1 MOL      0.100816
    120 H56        -4.1090   -0.5730    5.6160 hc        1 MOL      0.100816
    121 N11        -4.8280    1.2040    0.0660 n         1 MOL     -0.353596
    122 C40        -6.3040    1.3170   -0.1390 c3        1 MOL      0.052959
    123 C41        -7.0840    0.0160    0.2120 c         1 MOL      0.479168
    124 O16        -6.4660   -0.9420    0.6940 o         1 MOL     -0.322081
    125 C42        -6.6380    1.7620   -1.5390 c3        1 MOL     -0.004911
    126 O17        -6.4110    0.6770   -2.4160 oh        1 MOL     -0.547774
    127 H57        -4.2580    0.7640   -0.6370 hn        1 MOL      0.288422
    128 H58        -6.5510    2.1500    0.5150 h1        1 MOL      0.073595
    129 H59        -6.1090    2.6750   -1.8410 h1        1 MOL      0.062828
    130 H60        -7.6950    2.0040   -1.5200 h1        1 MOL      0.062828
    131 H61        -6.8240    0.9260   -3.2460 ho        1 MOL      0.389321
    132 N12        -8.3770   -0.0400    0.1370 n         1 MOL     -0.635091
    133 C43        -9.0690   -1.3240    0.3810 c3        1 MOL      0.422236
    134 C44        -8.6620   -2.5410   -0.3960 c         1 MOL      0.358809
    135 O18        -8.4520   -3.6050    0.1660 o         1 MOL     -0.515556
    136 C45       -10.6020   -1.1390    0.3040 c3        1 MOL     -0.413739
    137 H62        -8.8920    0.6060   -0.4420 hn        1 MOL      0.335199
    138 H63        -8.8150   -1.5510    1.4110 h1        1 MOL      0.024080
    139 H64       -10.8350   -0.2380    0.8510 hc        1 MOL      0.108391
    140 H65       -10.9300   -1.0630   -0.7340 hc        1 MOL      0.108391
    141 H66       -10.9360   -1.9950    0.8820 hc        1 MOL      0.108391
    142 N13        -8.4370   -2.3710   -1.7020 n         1 MOL     -0.364294
    143 C46        -7.8690   -3.4570   -2.5380 c3        1 MOL      0.115811
    144 C47        -6.5140   -3.9690   -2.1620 c         1 MOL      0.249379
    145 O19        -6.0740   -5.1070   -2.5550 o         1 MOL     -0.497631
    146 C48        -7.9530   -3.1040   -4.0260 c3        1 MOL     -0.258138
    147 H67        -8.7340   -1.4910   -2.0930 hn        1 MOL      0.236897
    148 H68        -8.6140   -4.2600   -2.5060 h1        1 MOL      0.104273
    149 H69        -7.9810   -4.0210   -4.6170 hc        1 MOL      0.075828
    150 H70        -8.8590   -2.5210   -4.2200 hc        1 MOL      0.075828
    151 H71        -7.0850   -2.4910   -4.2790 hc        1 MOL      0.075828
    152 N14        -5.7440   -3.1720   -1.3360 n         1 MOL      0.161031
    153 C49        -4.5010   -3.4740   -0.7480 c3        1 MOL     -0.090572
    154 C50        -4.6100   -4.0770    0.6800 c         1 MOL      0.359813
    155 O20        -4.0150   -5.1220    0.9420 o         1 MOL     -0.522346
    156 C51        -3.5550   -2.2880   -0.7390 c3        1 MOL      0.014706
    157 C52        -3.2140   -1.9950   -2.1910 c3        1 MOL     -0.177845
    158 C53        -2.2170   -0.7400   -2.3160 c         1 MOL      0.752956
    159 O21        -0.9920   -0.9550   -2.1130 o         1 MOL     -0.748928
    160 O22        -2.7090    0.3990   -2.3420 o         1 MOL     -0.748928
    161 H72        -6.0850   -2.2210   -1.3110 hn        1 MOL      0.089924
    162 H73        -4.0240   -4.1740   -1.4380 h1        1 MOL      0.060677
    163 H74        -2.6430   -2.5310   -0.1870 hc        1 MOL      0.085733
    164 H75        -4.0750   -1.4660   -0.2720 hc        1 MOL      0.085733
    165 H76        -4.1460   -1.8830   -2.7520 hc        1 MOL      0.012524
    166 H77        -2.6720   -2.8330   -2.6220 hc        1 MOL      0.012524
    167 N15        -5.3790   -3.3730    1.4760 n         1 MOL      0.029227
    168 C54        -5.7300   -3.8740    2.7580 c3        1 MOL     -0.331530
    169 H78        -4.8240   -4.0810    3.3260 h1        1 MOL      0.110854
    170 H79        -6.3280   -3.1320    3.2870 h1        1 MOL      0.110854
    171 H80        -6.3060   -4.7920    2.6450 h1        1 MOL      0.110854
    172 H81        -5.9820   -2.6580    1.0900 hn        1 MOL      0.043094
    173 Ca1         0.9730    0.5220   -1.3470 Ca        1 MOL      1.787459
    174 O23        -0.9700    2.2190   -2.0840 oh        1 MOL     -0.803968
    175 H82        -1.7440    1.6680   -2.1350 ho        1 MOL      0.390827
    176 H83        -1.1630    2.9780   -2.6290 ho        1 MOL      0.390827
    177 O24         1.0120    0.9830   -4.1340 oh        1 MOL     -0.803968
    178 H84         0.9290    0.1980   -4.6740 ho        1 MOL      0.390827
    179 H85         0.6680    1.6870   -4.6850 ho        1 MOL      0.390827
@<TRIPOS>BOND
     1    1    2 1   
     2    1    4 1   
     3    1    5 1   
     4    1    6 1   
     5    2    3 2   
     6    2    7 1   
     7    7    8 1   
     8    7   15 1   
     9    8    9 1   
    10    8   11 1   
    11    8   16 1   
    12    9   10 2   
    13    9   19 1   
    14   11   12 1   
    15   11   17 1   
    16   11   18 1   
    17   12   13 1   
    18   12   14 1   
    19   19   20 1   
    20   19   28 1   
    21   20   21 1   
    22   20   23 1   
    23   20   29 1   
    24   21   22 2   
    25   21   41 1   
    26   23   24 1   
    27   23   30 1   
    28   23   31 1   
    29   24   25 1   
    30   24   32 1   
    31   24   33 1   
    32   25   26 1   
    33   25   34 1   
    34   25   35 1   
    35   26   27 1   
    36   26   36 1   
    37   26   37 1   
    38   27   38 1   
    39   27   39 1   
    40   27   40 1   
    41   41   42 1   
    42   41   49 1   
    43   42   43 1   
    44   42   45 1   
    45   42   50 1   
    46   43   44 2   
    47   43   53 1   
    48   45   46 1   
    49   45   51 1   
    50   45   52 1   
    51   46   47 1   
    52   46   48 1   
    53   53   54 1   
    54   53   57 1   
    55   54   55 1   
    56   54   58 1   
    57   54   59 1   
    58   55   56 2   
    59   55   60 1   
    60   60   61 1   
    61   60   68 1   
    62   61   62 1   
    63   61   64 1   
    64   61   69 1   
    65   62   63 2   
    66   62   74 1   
    67   64   65 1   
    68   64   70 1   
    69   64   71 1   
    70   65   66 1   
    71   65   67 2   
    72   66   72 1   
    73   66   73 1   
    74   74   75 1   
    75   74   78 1   
    76   75   76 1   
    77   75   79 1   
    78   75   80 1   
    79   76   77 2   
    80   76   81 1   
    81   81   82 1   
    82   81   93 1   
    83   82   83 1   
    84   82   85 1   
    85   82   94 1   
    86   83   84 2   
    87   83  102 1   
    88   85   86 1   
    89   85   95 1   
    90   85   96 1   
    91   86   87 ar  
    92   86   88 ar  
    93   87   89 ar  
    94   87   97 1   
    95   88   90 ar  
    96   88   98 1   
    97   89   91 ar  
    98   89   99 1   
    99   90   91 ar  
   100   90  100 1   
   101   91   92 1   
   102   92  101 1   
   103  102  103 1   
   104  102  110 1   
   105  103  104 1   
   106  103  106 1   
   107  103  111 1   
   108  104  105 2   
   109  104  121 1   
   110  106  107 1   
   111  106  108 1   
   112  106  112 1   
   113  107  109 1   
   114  107  113 1   
   115  107  114 1   
   116  108  115 1   
   117  108  116 1   
   118  108  117 1   
   119  109  118 1   
   120  109  119 1   
   121  109  120 1   
   122  121  122 1   
   123  121  127 1   
   124  122  123 1   
   125  122  125 1   
   126  122  128 1   
   127  123  124 2   
   128  123  132 1   
   129  125  126 1   
   130  125  129 1   
   131  125  130 1   
   132  126  131 1   
   133  132  133 1   
   134  132  137 1   
   135  133  134 1   
   136  133  136 1   
   137  133  138 1   
   138  134  135 2   
   139  134  142 1   
   140  136  139 1   
   141  136  140 1   
   142  136  141 1   
   143  142  143 1   
   144  142  147 1   
   145  143  144 1   
   146  143  146 1   
   147  143  148 1   
   148  144  145 2   
   149  144  152 1   
   150  146  149 1   
   151  146  150 1   
   152  146  151 1   
   153  152  153 1   
   154  152  161 1   
   155  153  154 1   
   156  153  156 1   
   157  153  162 1   
   158  154  155 2   
   159  154  167 1   
   160  156  157 1   
   161  156  163 1   
   162  156  164 1   
   163  157  158 1   
   164  157  165 1   
   165  157  166 1   
   166  158  159 1   
   167  158  160 1   
   168  167  168 1   
   169  167  172 1   
   170  168  169 1   
   171  168  170 1   
   172  168  171 1   
   173  174  175 1   
   174  174  176 1   
   175  177  178 1   
   176  177  179 1   
@<TRIPOS>SUBSTRUCTURE
     1 MOL         1 TEMP              0 ****  ****    0 ROOT
