@<TRIPOS>MOLECULE
MOL
  189   185     1     0     0
SMALL
resp


@<TRIPOS>ATOM
      1 C1         -0.6250    1.7060    6.2990 c3        1 MOL     -0.314562
      2 C2         -0.8810    1.5720    4.7830 c         1 MOL      0.731910
      3 O1          0.0390    1.8350    4.0380 o         1 MOL     -0.639040
      4 H1         -0.7710    2.7440    6.6010 hc        1 MOL      0.076609
      5 H2         -1.3200    1.0680    6.8430 hc        1 MOL      0.076609
      6 H3          0.3980    1.4050    6.5230 hc        1 MOL      0.076609
      7 N1         -2.0600    1.2160    4.3470 n         1 MOL     -0.548822
      8 C3         -2.5060    1.2420    2.9690 c3        1 MOL      0.059838
      9 C4         -2.8780    2.6270    2.4430 c         1 MOL      0.496374
     10 O2         -3.8710    3.1610    2.8190 o         1 MOL     -0.485530
     11 C5         -3.6440    0.2200    2.8270 c3        1 MOL     -0.309002
     12 C6         -4.1890    0.0420    1.4030 c         1 MOL      0.732338
     13 O3         -3.5950    0.6130    0.4730 o         1 MOL     -0.657559
     14 O4         -5.2770   -0.6020    1.2620 o         1 MOL     -0.657559
     15 H4         -2.6520    0.9470    5.1210 hn        1 MOL      0.325198
     16 H5         -1.7640    0.9580    2.2140 h1        1 MOL      0.072850
     17 H6         -4.4170    0.5740    3.5170 hc        1 MOL      0.077374
     18 H7         -3.2460   -0.7420    3.1480 hc        1 MOL      0.077374
     19 N2         -1.9240    3.1510    1.6730 n         1 MOL     -0.197136
     20 C7         -1.9440    4.5640    1.6000 c3        1 MOL     -0.156859
     21 C8         -3.0360    5.0200    0.6170 c         1 MOL      0.341235
     22 O5         -3.8510    5.8750    0.8670 o         1 MOL     -0.513986
     23 C9         -0.5200    5.0000    1.2160 c3        1 MOL      0.041595
     24 C10        -0.4480    6.5000    1.3030 c3        1 MOL     -0.158901
     25 C11         0.9790    6.9890    1.5160 c3        1 MOL      0.119691
     26 C12         1.7700    6.6410    0.2720 c3        1 MOL      0.079329
     27 N3          3.2170    7.0790    0.3770 n4        1 MOL     -0.327268
     28 H8         -1.1310    2.5730    1.4200 hn        1 MOL      0.241250
     29 H9         -2.1740    5.0060    2.5680 h1        1 MOL      0.119052
     30 H10        -0.3040    4.7210    0.1870 hc        1 MOL      0.030924
     31 H11         0.2020    4.4800    1.8420 hc        1 MOL      0.030924
     32 H12        -1.0100    6.8290    2.1770 hc        1 MOL      0.070169
     33 H13        -0.9420    6.9260    0.4190 hc        1 MOL      0.070169
     34 H14         1.5100    6.5010    2.3390 hc        1 MOL     -0.001513
     35 H15         0.9830    8.0710    1.6540 hc        1 MOL     -0.001513
     36 H16         1.2690    7.2270   -0.4960 hx        1 MOL      0.043560
     37 H17         1.7710    5.5590    0.1560 hx        1 MOL      0.043560
     38 H18         3.4030    7.9180    0.8980 hn        1 MOL      0.309736
     39 H19         3.7210    6.3200    0.8240 hn        1 MOL      0.309736
     40 H20         3.6030    7.1540   -0.5570 hn        1 MOL      0.309736
     41 N4         -3.0170    4.3850   -0.5320 n         1 MOL     -0.126157
     42 C13        -3.9620    4.5380   -1.5840 c3        1 MOL      0.029077
     43 C14        -5.2790    3.6620   -1.4300 c         1 MOL      0.395708
     44 O6         -6.2880    3.9460   -2.1190 o         1 MOL     -0.545064
     45 C15        -3.3430    4.2600   -2.9670 c3        1 MOL     -0.275197
     46 C16        -2.7280    2.8880   -3.1170 c         1 MOL      0.665347
     47 O7         -2.6320    2.1420   -2.1090 o         1 MOL     -0.667984
     48 O8         -2.3300    2.4100   -4.1890 o         1 MOL     -0.667984
     49 H21        -2.3900    3.5950   -0.6510 hn        1 MOL      0.128067
     50 H22        -4.2970    5.5770   -1.6830 h1        1 MOL      0.070085
     51 H23        -2.5840    5.0250   -3.1550 hc        1 MOL      0.077348
     52 H24        -4.1890    4.3440   -3.6450 hc        1 MOL      0.077348
     53 N5         -5.2430    2.8100   -0.4150 n         1 MOL      0.003924
     54 C17        -6.4800    2.2270    0.0980 c3        1 MOL     -0.133353
     55 C18        -7.1100    1.0460   -0.6870 c         1 MOL      0.610497
     56 O9         -8.2940    0.8550   -0.5140 o         1 MOL     -0.591828
     57 H25        -4.3630    2.5810    0.0120 hn        1 MOL      0.064939
     58 H26        -7.1650    3.0290    0.3710 h1        1 MOL      0.070255
     59 H27        -6.0810    1.8060    1.0210 h1        1 MOL      0.070255
     60 N6         -6.3170    0.4020   -1.5200 n         1 MOL     -0.376560
     61 C19        -6.8720   -0.6870   -2.3790 c3        1 MOL     -0.031772
     62 C20        -7.0160   -2.0680   -1.6440 c         1 MOL      0.439231
     63 O10        -7.3800   -3.0970   -2.1940 o         1 MOL     -0.537949
     64 C21        -5.9320   -0.7840   -3.6320 c3        1 MOL     -0.293402
     65 C22        -4.4240   -1.1290   -3.3760 c         1 MOL      0.754491
     66 O11        -3.9210   -0.8910   -2.2560 o         1 MOL     -0.611484
     67 O12        -3.8310   -1.6080   -4.3660 o         1 MOL     -0.611484
     68 H28        -5.3260    0.6280   -1.5570 hn        1 MOL      0.233289
     69 H29        -7.8840   -0.4130   -2.6830 h1        1 MOL      0.125855
     70 H30        -5.9290    0.1300   -4.2310 hc        1 MOL      0.090667
     71 H31        -6.3560   -1.5620   -4.2540 hc        1 MOL      0.090667
     72 N7         -6.9500   -1.9830   -0.3370 n         1 MOL     -0.204581
     73 C23        -7.0790   -3.0670    0.5970 c3        1 MOL     -0.221175
     74 C24        -5.8590   -3.9980    0.6040 c         1 MOL      0.513807
     75 O13        -6.0420   -5.1330    1.0390 o         1 MOL     -0.574035
     76 H32        -6.5710   -1.1140    0.0360 hn        1 MOL      0.276992
     77 H33        -8.0040   -3.6160    0.3990 h1        1 MOL      0.124974
     78 H34        -7.0650   -2.6600    1.6130 h1        1 MOL      0.124974
     79 N8         -4.6100   -3.5930    0.3040 n         1 MOL     -0.073380
     80 C25        -3.3250   -4.4430    0.4000 c3        1 MOL     -0.101608
     81 C26        -2.1320   -3.5530    0.4790 c         1 MOL      0.665595
     82 O14        -2.1840   -2.3570    0.2040 o         1 MOL     -0.631015
     83 C27        -3.1010   -5.4190   -0.7570 c3        1 MOL      0.245874
     84 C28        -4.2300   -6.4600   -0.8910 c3        1 MOL     -0.335653
     85 O15        -3.2250   -4.5470   -1.9090 oh        1 MOL     -0.598981
     86 H35        -4.5080   -2.6050    0.1070 hn        1 MOL      0.012296
     87 H36        -3.3550   -4.9700    1.3520 h1        1 MOL      0.056758
     88 H37        -2.0890   -5.8280   -0.7700 h1        1 MOL      0.074530
     89 H38        -4.1470   -4.4010   -2.1230 ho        1 MOL      0.391388
     90 H39        -5.1680   -5.9360   -1.0720 hc        1 MOL      0.100319
     91 H40        -3.9540   -7.3060   -1.5320 hc        1 MOL      0.100319
     92 H41        -4.2740   -6.8900    0.1060 hc        1 MOL      0.100319
     93 N9         -1.0490   -4.0770    0.8980 n         1 MOL     -0.406405
     94 C29         0.2210   -3.4490    1.2740 c3        1 MOL     -0.223797
     95 C30         1.3890   -3.8150    0.3460 c         1 MOL      0.748761
     96 O16         1.7700   -4.9790    0.1910 o         1 MOL     -0.585012
     97 C31         0.5650   -3.7380    2.7460 c3        1 MOL      0.130151
     98 C32        -0.4690   -2.9560    3.5920 c3        1 MOL      0.268779
     99 C33         2.0160   -3.4540    3.2080 c3        1 MOL     -0.196735
    100 C34        -0.4730   -3.0860    5.0990 c3        1 MOL     -0.358736
    101 H42        -1.0080   -5.0890    0.9090 hn        1 MOL      0.249772
    102 H43         0.1200   -2.3660    1.1600 h1        1 MOL      0.075774
    103 H44         0.3320   -4.7870    2.9240 hc        1 MOL      0.005050
    104 H45        -1.4460   -3.3590    3.3180 hc        1 MOL     -0.030495
    105 H46        -0.3700   -1.8890    3.4110 hc        1 MOL     -0.030495
    106 H47         2.1750   -3.8610    4.2100 hc        1 MOL      0.029168
    107 H48         2.6330   -4.0230    2.5070 hc        1 MOL      0.029168
    108 H49         2.3150   -2.4270    3.0210 hc        1 MOL      0.029168
    109 H50         0.3770   -2.4790    5.4300 hc        1 MOL      0.077354
    110 H51        -1.4090   -2.7830    5.5610 hc        1 MOL      0.077354
    111 H52        -0.2900   -4.1350    5.3220 hc        1 MOL      0.077354
    112 N10         2.0130   -2.8310   -0.3230 n         1 MOL     -0.444810
    113 C35         3.3210   -2.8870   -1.1580 c3        1 MOL     -0.226172
    114 C36         4.6460   -2.8860   -0.3580 c         1 MOL      0.579658
    115 O17         4.5660   -2.4470    0.8240 o         1 MOL     -0.440302
    116 C37         3.3980   -1.7410   -2.1930 c3        1 MOL      0.173229
    117 C38         2.2050   -1.8230   -3.1790 c3        1 MOL     -0.199810
    118 O18         3.4320   -0.5240   -1.4520 oh        1 MOL     -0.551260
    119 H53         1.5710   -1.9240   -0.2200 hn        1 MOL      0.333598
    120 H54         3.2280   -3.8290   -1.6870 h1        1 MOL      0.119711
    121 H55         4.2570   -1.8270   -2.8690 h1        1 MOL      0.052608
    122 H56         2.5080   -0.3370   -1.2730 ho        1 MOL      0.395050
    123 H57         2.4840   -1.3660   -4.1240 hc        1 MOL      0.074759
    124 H58         1.9870   -2.8430   -3.4950 hc        1 MOL      0.074759
    125 H59         1.3590   -1.2870   -2.7430 hc        1 MOL      0.074759
    126 N11         5.8100   -3.0880   -0.9610 n         1 MOL     -0.384802
    127 C39         7.1590   -2.8490   -0.4070 c3        1 MOL     -0.147467
    128 C40         7.2990   -1.4330    0.1670 c         1 MOL      0.352534
    129 O19         7.7880   -1.2240    1.2950 o         1 MOL     -0.453027
    130 C41         8.2520   -2.9470   -1.4820 c3        1 MOL      0.341310
    131 C42         8.6960   -4.4080   -1.7660 c3        1 MOL     -0.333319
    132 O20         7.9350   -2.4140   -2.7060 oh        1 MOL     -0.606714
    133 H60         5.7920   -3.4180   -1.9230 hn        1 MOL      0.287434
    134 H61         7.2020   -3.5650    0.4240 h1        1 MOL      0.171827
    135 H62         9.1460   -2.4960   -1.0540 h1        1 MOL      0.041864
    136 H63         8.6690   -1.9360   -3.0960 ho        1 MOL      0.390435
    137 H64         7.8640   -4.9310   -2.2330 hc        1 MOL      0.094679
    138 H65         9.5840   -4.4450   -2.3950 hc        1 MOL      0.094679
    139 H66         8.8840   -4.8610   -0.7820 hc        1 MOL      0.094679
    140 N12         6.9630   -0.3950   -0.6180 n         1 MOL     -0.416384
    141 C43         7.1430    1.0270   -0.2500 c3        1 MOL     -0.022072
    142 C44         6.2750    1.3120    0.9360 c         1 MOL      0.363025
    143 O21         6.7050    2.0420    1.8190 o         1 MOL     -0.500297
    144 C45         6.9540    2.0750   -1.3240 c3        1 MOL     -0.084031
    145 C46         7.9220    2.0750   -2.4850 c3        1 MOL      0.017680
    146 C47         7.6210    3.2240   -3.4960 c3        1 MOL      0.129569
    147 C48         8.2600    3.0050   -4.8340 c3        1 MOL     -0.059393
    148 N13         9.7150    2.9240   -4.7670 n4        1 MOL     -0.100399
    149 H67         6.4390   -0.6280   -1.4490 hn        1 MOL      0.290457
    150 H68         8.1960    1.1470    0.0010 h1        1 MOL      0.139081
    151 H69         7.0640    3.0480   -0.8400 hc        1 MOL      0.029651
    152 H70         5.9250    2.0260   -1.6690 hc        1 MOL      0.029651
    153 H71         7.8290    1.1970   -3.1210 hc        1 MOL     -0.003956
    154 H72         8.9280    2.1410   -2.0700 hc        1 MOL     -0.003956
    155 H73         7.9820    4.2000   -3.2000 hc        1 MOL      0.003633
    156 H74         6.5460    3.3980   -3.6180 hc        1 MOL      0.003633
    157 H75         7.9310    3.8190   -5.4860 hx        1 MOL      0.086906
    158 H76         7.9110    2.0640   -5.2480 hx        1 MOL      0.086906
    159 H77        10.0230    2.0610   -4.3650 hn        1 MOL      0.203238
    160 H78        10.0910    2.9510   -5.7060 hn        1 MOL      0.203238
    161 H79        10.2250    3.6510   -4.2860 hn        1 MOL      0.203238
    162 N14         5.0920    0.6350    1.0090 n         1 MOL     -0.035926
    163 C49         4.1910    0.8230    2.2220 c3        1 MOL     -0.252092
    164 C50         4.5550   -0.0940    3.4650 c         1 MOL      0.510902
    165 O22         4.5100    0.2650    4.6920 o         1 MOL     -0.591432
    166 C51         2.7220    0.4950    1.8620 c3        1 MOL      0.272182
    167 C52         2.1250    1.4330    0.7290 c3        1 MOL     -0.168896
    168 C53         0.8190    0.8260    0.1630 c         1 MOL      0.655189
    169 O23         0.7920   -0.2750   -0.4540 o         1 MOL     -0.741907
    170 O24        -0.2650    1.4200    0.3100 o         1 MOL     -0.741907
    171 H80         4.8150    0.0020    0.2720 hn        1 MOL      0.130714
    172 H81         4.1890    1.8250    2.6420 h1        1 MOL      0.109941
    173 H82         2.1000    0.5320    2.7630 hc        1 MOL      0.005119
    174 H83         2.7270   -0.5240    1.4740 hc        1 MOL      0.005119
    175 H84         2.8670    1.5700   -0.0560 hc        1 MOL      0.008425
    176 H85         1.8620    2.3830    1.1900 hc        1 MOL      0.008425
    177 N15         5.1520   -1.2070    3.2010 n         1 MOL     -0.041294
    178 C54         5.9750   -1.9020    4.2590 c3        1 MOL     -0.442110
    179 H86         5.6790   -1.5420    5.2440 h1        1 MOL      0.153797
    180 H87         5.8090   -2.9780    4.2010 h1        1 MOL      0.153797
    181 H88         7.0310   -1.6880    4.0970 h1        1 MOL      0.153797
    182 H89         5.3040   -1.4570    2.2360 hn        1 MOL      0.163513
    183 Ca1        -1.8200   -0.1550   -1.1510 Ca        1 MOL      1.712472
    184 O25        -1.2270   -2.5880   -2.5110 oh        1 MOL     -0.824754
    185 H90        -1.6890   -3.4180   -2.3810 ho        1 MOL      0.381787
    186 H91        -1.1820   -2.4860   -3.4580 ho        1 MOL      0.381787
    187 O26        -0.7760    0.4500   -3.4630 oh        1 MOL     -0.824754
    188 H92        -1.5040    1.0180   -3.7230 ho        1 MOL      0.381787
    189 H93        -0.0060    1.0160   -3.4740 ho        1 MOL      0.381787
@<TRIPOS>BOND
     1    1    2 1   
     2    1    4 1   
     3    1    5 1   
     4    1    6 1   
     5    2    3 2   
     6    2    7 1   
     7    7    8 1   
     8    7   15 1   
     9    8    9 1   
    10    8   11 1   
    11    8   16 1   
    12    9   10 2   
    13    9   19 1   
    14   11   12 1   
    15   11   17 1   
    16   11   18 1   
    17   12   13 1   
    18   12   14 1   
    19   19   20 1   
    20   19   28 1   
    21   20   21 1   
    22   20   23 1   
    23   20   29 1   
    24   21   22 2   
    25   21   41 1   
    26   23   24 1   
    27   23   30 1   
    28   23   31 1   
    29   24   25 1   
    30   24   32 1   
    31   24   33 1   
    32   25   26 1   
    33   25   34 1   
    34   25   35 1   
    35   26   27 1   
    36   26   36 1   
    37   26   37 1   
    38   27   38 1   
    39   27   39 1   
    40   27   40 1   
    41   41   42 1   
    42   41   49 1   
    43   42   43 1   
    44   42   45 1   
    45   42   50 1   
    46   43   44 2   
    47   43   53 1   
    48   45   46 1   
    49   45   51 1   
    50   45   52 1   
    51   46   47 1   
    52   46   48 1   
    53   53   54 1   
    54   53   57 1   
    55   54   55 1   
    56   54   58 1   
    57   54   59 1   
    58   55   56 2   
    59   55   60 1   
    60   60   61 1   
    61   60   68 1   
    62   61   62 1   
    63   61   64 1   
    64   61   69 1   
    65   62   63 2   
    66   62   72 1   
    67   64   65 1   
    68   64   70 1   
    69   64   71 1   
    70   65   66 1   
    71   65   67 1   
    72   72   73 1   
    73   72   76 1   
    74   73   74 1   
    75   73   77 1   
    76   73   78 1   
    77   74   75 2   
    78   74   79 1   
    79   79   80 1   
    80   79   86 1   
    81   80   81 1   
    82   80   83 1   
    83   80   87 1   
    84   81   82 2   
    85   81   93 1   
    86   83   84 1   
    87   83   85 1   
    88   83   88 1   
    89   84   90 1   
    90   84   91 1   
    91   84   92 1   
    92   85   89 1   
    93   93   94 1   
    94   93  101 1   
    95   94   95 1   
    96   94   97 1   
    97   94  102 1   
    98   95   96 2   
    99   95  112 1   
   100   97   98 1   
   101   97   99 1   
   102   97  103 1   
   103   98  100 1   
   104   98  104 1   
   105   98  105 1   
   106   99  106 1   
   107   99  107 1   
   108   99  108 1   
   109  100  109 1   
   110  100  110 1   
   111  100  111 1   
   112  112  113 1   
   113  112  119 1   
   114  113  114 1   
   115  113  116 1   
   116  113  120 1   
   117  114  115 2   
   118  114  126 1   
   119  116  117 1   
   120  116  118 1   
   121  116  121 1   
   122  117  123 1   
   123  117  124 1   
   124  117  125 1   
   125  118  122 1   
   126  126  127 1   
   127  126  133 1   
   128  127  128 1   
   129  127  130 1   
   130  127  134 1   
   131  128  129 2   
   132  128  140 1   
   133  130  131 1   
   134  130  132 1   
   135  130  135 1   
   136  131  137 1   
   137  131  138 1   
   138  131  139 1   
   139  132  136 1   
   140  140  141 1   
   141  140  149 1   
   142  141  142 1   
   143  141  144 1   
   144  141  150 1   
   145  142  143 2   
   146  142  162 1   
   147  144  145 1   
   148  144  151 1   
   149  144  152 1   
   150  145  146 1   
   151  145  153 1   
   152  145  154 1   
   153  146  147 1   
   154  146  155 1   
   155  146  156 1   
   156  147  148 1   
   157  147  157 1   
   158  147  158 1   
   159  148  159 1   
   160  148  160 1   
   161  148  161 1   
   162  162  163 1   
   163  162  171 1   
   164  163  164 1   
   165  163  166 1   
   166  163  172 1   
   167  164  165 2   
   168  164  177 1   
   169  166  167 1   
   170  166  173 1   
   171  166  174 1   
   172  167  168 1   
   173  167  175 1   
   174  167  176 1   
   175  168  169 1   
   176  168  170 1   
   177  177  178 1   
   178  177  182 1   
   179  178  179 1   
   180  178  180 1   
   181  178  181 1   
   182  184  185 1   
   183  184  186 1   
   184  187  188 1   
   185  187  189 1   
@<TRIPOS>SUBSTRUCTURE
     1 MOL         1 TEMP              0 ****  ****    0 ROOT
