@<TRIPOS>MOLECULE
MOL
  189   185     1     0     0
SMALL
resp


@<TRIPOS>ATOM
      1 C1         -0.2690   -3.4410    6.0050 c3        1 MOL     -0.435267
      2 C2          0.3460   -3.0250    4.6560 c         1 MOL      0.763683
      3 O1          0.5500   -1.8850    4.3570 o         1 MOL     -0.611922
      4 H1         -1.2800   -3.0390    6.0820 hc        1 MOL      0.106659
      5 H2         -0.3060   -4.5290    6.0680 hc        1 MOL      0.106659
      6 H3          0.3400   -3.0490    6.8190 hc        1 MOL      0.106659
      7 N1          0.7160   -4.0160    3.8960 n         1 MOL     -0.545589
      8 C3          1.3940   -3.8130    2.6970 c3        1 MOL      0.224001
      9 C4          1.0920   -4.9630    1.6740 c         1 MOL      0.439659
     10 O2          1.2210   -6.1860    1.9680 o         1 MOL     -0.589778
     11 C5          2.9400   -3.7680    2.9630 c3        1 MOL     -0.340220
     12 C6          3.8210   -3.2160    1.7910 c         1 MOL      0.779177
     13 O3          3.2860   -2.7380    0.7550 o         1 MOL     -0.697275
     14 O4          5.0830   -3.2960    1.8680 o         1 MOL     -0.697275
     15 H4          0.6690   -4.9780    4.2150 hn        1 MOL      0.300621
     16 H5          1.0960   -2.8690    2.2470 h1        1 MOL     -0.000808
     17 H6          3.2580   -4.7910    3.1580 hc        1 MOL      0.074950
     18 H7          3.1810   -3.1380    3.8230 hc        1 MOL      0.074950
     19 N2          0.8340   -4.5870    0.4430 n         1 MOL     -0.148950
     20 C7          0.6740   -5.5820   -0.6690 c3        1 MOL     -0.053633
     21 C8          1.9160   -5.5500   -1.6880 c         1 MOL      0.569369
     22 O5          2.0310   -6.4540   -2.4720 o         1 MOL     -0.579197
     23 C9         -0.7090   -5.4410   -1.4310 c3        1 MOL      0.244879
     24 C10        -1.9310   -5.0710   -0.4880 c3        1 MOL     -0.256442
     25 C11        -1.0920   -6.6880   -2.1570 c3        1 MOL     -0.273363
     26 C12        -2.1860   -5.8630    0.7810 c3        1 MOL      0.007325
     27 H8          0.6810   -3.6170    0.1930 hn        1 MOL      0.123976
     28 H9          0.6570   -6.5670   -0.2130 h1        1 MOL      0.091899
     29 H10        -0.6220   -4.6290   -2.1480 hc        1 MOL      0.018601
     30 H11        -2.8010   -5.1710   -1.1300 hc        1 MOL      0.092265
     31 H12        -1.9540   -4.0070   -0.2430 hc        1 MOL      0.092265
     32 H13        -0.3900   -6.8840   -2.9680 hc        1 MOL      0.056781
     33 H14        -1.0870   -7.6020   -1.5640 hc        1 MOL      0.056781
     34 H15        -1.9900   -6.5190   -2.7530 hc        1 MOL      0.056781
     35 H16        -3.2270   -5.8870    1.1090 hc        1 MOL     -0.007153
     36 H17        -1.8490   -6.8850    0.5970 hc        1 MOL     -0.007153
     37 H18        -1.5020   -5.5020    1.5520 hc        1 MOL     -0.007153
     38 N3          2.7890   -4.5410   -1.6540 n         1 MOL     -0.578197
     39 C13         3.6470   -4.2190   -2.7890 c3        1 MOL      0.218422
     40 C14         5.0660   -3.6060   -2.4840 c         1 MOL      0.328241
     41 O6          5.8930   -3.5490   -3.3670 o         1 MOL     -0.517380
     42 C15         2.8600   -3.3450   -3.6960 c3        1 MOL     -0.225428
     43 C16         2.2510   -2.0670   -3.1100 c         1 MOL      0.727885
     44 O7          2.5080   -1.6950   -1.9490 o         1 MOL     -0.705075
     45 O8          1.5060   -1.3270   -3.8210 o         1 MOL     -0.705075
     46 H19         2.7130   -3.8070   -0.9540 hn        1 MOL      0.314815
     47 H20         3.8320   -5.1110   -3.3790 h1        1 MOL      0.057474
     48 H21         1.9960   -3.8440   -4.1410 hc        1 MOL      0.048738
     49 H22         3.5430   -3.1980   -4.5260 hc        1 MOL      0.048738
     50 N4          5.3310   -3.2620   -1.2230 n         1 MOL     -0.137138
     51 C17         6.7450   -2.8320   -0.8460 c3        1 MOL     -0.277537
     52 C18         7.3290   -1.5610   -1.5080 c         1 MOL      0.485149
     53 O9          8.5440   -1.4700   -1.6060 o         1 MOL     -0.558043
     54 H23         4.6800   -3.4210   -0.4750 hn        1 MOL      0.176984
     55 H24         7.4620   -3.5910   -1.1570 h1        1 MOL      0.134212
     56 H25         6.7580   -2.6390    0.2310 h1        1 MOL      0.134212
     57 N5          6.4360   -0.5300   -1.7710 n         1 MOL     -0.139921
     58 C19         6.7910    0.7490   -2.4180 c3        1 MOL     -0.062226
     59 C20         7.3450    1.7720   -1.4230 c         1 MOL      0.379273
     60 O10         7.9990    2.7870   -1.7500 o         1 MOL     -0.548030
     61 C21         5.6300    1.3180   -3.1220 c3        1 MOL     -0.136545
     62 C22         4.3380    1.5810   -2.1960 c         1 MOL      0.647353
     63 O11         4.2240    1.2380   -0.9970 o         1 MOL     -0.654761
     64 O12         3.3320    2.0630   -2.8480 o         1 MOL     -0.654761
     65 H26         5.4530   -0.7270   -1.7100 hn        1 MOL      0.135832
     66 H27         7.6120    0.4070   -3.0430 h1        1 MOL      0.096149
     67 H28         5.4660    0.6770   -3.9920 hc        1 MOL      0.061634
     68 H29         5.9670    2.2350   -3.6080 hc        1 MOL      0.061634
     69 N6          7.0060    1.5560   -0.1410 n         1 MOL     -0.137604
     70 C23         7.3550    2.3720    1.0330 c3        1 MOL     -0.230554
     71 C24         6.2440    3.5080    1.2510 c         1 MOL      0.521633
     72 O13         6.6180    4.4910    1.9250 o         1 MOL     -0.579769
     73 H30         6.3960    0.7830    0.0890 hn        1 MOL      0.162409
     74 H31         8.3740    2.7600    0.9330 h1        1 MOL      0.108408
     75 H32         7.3260    1.6580    1.8580 h1        1 MOL      0.108408
     76 N7          5.0610    3.3580    0.6120 n         1 MOL     -0.302783
     77 C25         3.9470    4.2450    0.8760 c3        1 MOL     -0.009146
     78 C26         2.7590    3.3800    1.4020 c         1 MOL      0.455473
     79 O14         2.7060    2.1890    1.2370 o         1 MOL     -0.558781
     80 C27         3.5620    4.9280   -0.3720 c3        1 MOL     -0.007181
     81 C28         4.5340    6.0300   -0.7850 c3        1 MOL     -0.231792
     82 C29         4.0210    7.3060   -1.3640 c         1 MOL      0.680134
     83 N8          4.9150    8.1680   -1.8520 n         1 MOL     -0.807202
     84 O15         2.8160    7.5570   -1.5050 o         1 MOL     -0.560427
     85 H33         4.8990    2.5090    0.0800 hn        1 MOL      0.265791
     86 H34         4.1320    4.9540    1.6770 h1        1 MOL      0.037090
     87 H35         2.5550    5.3530   -0.2690 hc        1 MOL      0.046910
     88 H36         3.4720    4.1570   -1.1460 hc        1 MOL      0.046910
     89 H37         5.2140    5.5400   -1.4840 hc        1 MOL      0.092325
     90 H38         5.0620    6.3760    0.0990 hc        1 MOL      0.092325
     91 H39         5.8930    7.9860   -1.9680 hn        1 MOL      0.343332
     92 H40         4.6380    9.0840   -2.1950 hn        1 MOL      0.343332
     93 N9          1.7070    4.0230    1.9200 n         1 MOL     -0.337856
     94 C30         0.4320    3.4240    2.1740 c3        1 MOL      0.157573
     95 C31        -0.6090    3.7330    1.0730 c         1 MOL      0.458059
     96 O16        -0.8120    4.8690    0.8010 o         1 MOL     -0.580184
     97 C32        -0.0860    3.9690    3.4900 c3        1 MOL      0.266079
     98 C33        -1.4310    3.3770    3.8070 c3        1 MOL     -0.328673
     99 C34         0.7440    3.5290    4.7250 c3        1 MOL     -0.328673
    100 H41         1.7280    5.0280    1.9700 hn        1 MOL      0.229158
    101 H42         0.5850    2.3460    2.2150 h1        1 MOL     -0.025032
    102 H43        -0.0700    5.0560    3.4730 hc        1 MOL     -0.032771
    103 H44        -2.1460    3.6190    3.0340 hc        1 MOL      0.066556
    104 H45        -1.3800    2.3020    3.9760 hc        1 MOL      0.066556
    105 H46        -1.7470    3.9890    4.6630 hc        1 MOL      0.066556
    106 H47         1.5450    4.2620    4.7720 hc        1 MOL      0.066556
    107 H48         0.1970    3.4030    5.6580 hc        1 MOL      0.066556
    108 H49         1.3500    2.6470    4.5620 hc        1 MOL      0.066556
    109 N10        -1.2020    2.6800    0.5030 n         1 MOL     -0.075818
    110 C35        -2.3690    2.8430   -0.3840 c3        1 MOL      0.103109
    111 C36        -3.7440    2.8680    0.3500 c         1 MOL      0.204912
    112 O17        -3.8080    2.3560    1.4710 o         1 MOL     -0.294596
    113 C37        -2.1790    1.7160   -1.4310 c3        1 MOL     -0.563294
    114 C38        -3.3070    1.5230   -2.3850 c         1 MOL      0.886738
    115 N11        -3.2330    2.2320   -3.5130 n         1 MOL     -0.842437
    116 O18        -4.2530    0.8170   -2.2390 o         1 MOL     -0.610615
    117 H50        -0.8410    1.7540    0.6580 hn        1 MOL      0.032890
    118 H51        -2.2400    3.8220   -0.8410 h1        1 MOL      0.043843
    119 H52        -2.0910    0.8200   -0.8000 hc        1 MOL      0.203803
    120 H53        -1.1830    1.7720   -1.8650 hc        1 MOL      0.203803
    121 H54        -2.4440    2.8560   -3.6480 hn        1 MOL      0.363060
    122 H55        -3.9290    2.0980   -4.2310 hn        1 MOL      0.363060
    123 N12        -4.8290    3.3210   -0.2670 n         1 MOL     -0.170136
    124 C39        -6.1930    3.2870    0.2410 c3        1 MOL      0.127909
    125 C40        -6.6620    1.9010    0.8010 c         1 MOL      0.353212
    126 O19        -7.4060    1.8710    1.7670 o         1 MOL     -0.545113
    127 C41        -7.1980    3.8200   -0.7620 c3        1 MOL     -0.332103
    128 C42        -7.3060    3.0780   -2.0700 ca        1 MOL      0.180749
    129 C43        -8.0860    1.9170   -2.2060 ca        1 MOL     -0.269818
    130 C44        -6.6080    3.5630   -3.2280 ca        1 MOL     -0.269818
    131 C45        -8.3430    1.3330   -3.4440 ca        1 MOL     -0.238162
    132 C46        -6.7150    2.8130   -4.4070 ca        1 MOL     -0.238162
    133 C47        -7.5580    1.6710   -4.5470 ca        1 MOL      0.432006
    134 O20        -7.8540    1.0130   -5.7080 oh        1 MOL     -0.598660
    135 H56        -4.6640    3.9170   -1.0600 hn        1 MOL      0.174871
    136 H57        -6.1410    3.9500    1.0950 h1        1 MOL      0.028617
    137 H58        -6.9010    4.8350   -1.0360 hc        1 MOL      0.101734
    138 H59        -8.1890    3.8430   -0.3010 hc        1 MOL      0.101734
    139 H60        -8.6360    1.4910   -1.3780 ha        1 MOL      0.155583
    140 H61        -5.8690    4.3400   -3.0920 ha        1 MOL      0.155583
    141 H62        -9.0350    0.4980   -3.4240 ha        1 MOL      0.130046
    142 H63        -6.0840    3.1370   -5.2220 ha        1 MOL      0.130046
    143 H64        -8.3340    0.1980   -5.5600 ho        1 MOL      0.443461
    144 N13        -6.2910    0.8050    0.0730 n         1 MOL      0.208965
    145 C48        -6.7800   -0.5160    0.4020 c3        1 MOL     -0.259354
    146 C49        -5.9090   -1.0770    1.5400 c         1 MOL      0.386799
    147 O21        -6.4080   -1.9320    2.3000 o         1 MOL     -0.525264
    148 C50        -6.8340   -1.4590   -0.8380 c3        1 MOL      0.354300
    149 C51        -7.8340   -2.5980   -0.7510 c3        1 MOL     -0.325870
    150 C52        -7.8490   -3.3530   -2.0880 c         1 MOL      0.644070
    151 O22        -6.9880   -4.2980   -2.2770 o         1 MOL     -0.721604
    152 O23        -8.5890   -2.9200   -3.0200 o         1 MOL     -0.721604
    153 H65        -5.7310    0.9240   -0.7580 hn        1 MOL      0.071917
    154 H66        -7.8320   -0.4610    0.7070 h1        1 MOL      0.085059
    155 H67        -5.8490   -1.8890   -1.0110 hc        1 MOL     -0.020881
    156 H68        -7.0800   -0.8740   -1.7240 hc        1 MOL     -0.020881
    157 H69        -8.8130   -2.1870   -0.5090 hc        1 MOL      0.044885
    158 H70        -7.5200   -3.3360   -0.0120 hc        1 MOL      0.044885
    159 N14        -4.6410   -0.6810    1.6720 n         1 MOL     -0.098385
    160 C53        -3.7430   -0.9900    2.8410 c3        1 MOL     -0.074721
    161 C54        -4.0600   -0.1690    4.1370 c         1 MOL      0.391290
    162 O24        -3.9480   -0.6580    5.2810 o         1 MOL     -0.566002
    163 C55        -2.2430   -0.7540    2.4760 c3        1 MOL      0.134236
    164 C56        -1.7480   -1.5460    1.2150 c3        1 MOL     -0.002809
    165 C57        -0.3540   -1.0490    0.7170 c         1 MOL      0.600443
    166 O25         0.0560    0.0780    0.9360 o         1 MOL     -0.606323
    167 O26         0.2990   -1.7380   -0.0910 o         1 MOL     -0.606323
    168 H71        -4.3030    0.0470    1.0680 hn        1 MOL      0.015268
    169 H72        -3.8570   -2.0510    3.0890 h1        1 MOL      0.083119
    170 H73        -1.5790   -1.1460    3.2480 hc        1 MOL      0.005579
    171 H74        -1.9190    0.2800    2.3700 hc        1 MOL      0.005579
    172 H75        -2.4990   -1.3890    0.4490 hc        1 MOL     -0.035470
    173 H76        -1.6000   -2.5680    1.5650 hc        1 MOL     -0.035470
    174 N15        -4.5030    1.0220    3.8940 n         1 MOL      0.021640
    175 C58        -4.8110    2.0300    4.9300 c3        1 MOL     -0.183452
    176 H77        -5.5310    2.7470    4.5360 h1        1 MOL      0.070723
    177 H78        -5.2330    1.5350    5.8040 h1        1 MOL      0.070723
    178 H79        -3.8970    2.5520    5.2130 h1        1 MOL      0.070723
    179 H80        -4.6120    1.3170    2.9370 hn        1 MOL      0.010060
    180 Ca1         2.5840   -0.3150    0.2650 Ca        1 MOL      1.734555
    181 O27         2.5710   -0.7620    3.1980 oh        1 MOL     -0.898454
    182 H81         2.9770   -0.3560    3.9680 ho        1 MOL      0.420545
    183 H82         1.7840   -1.1810    3.5400 ho        1 MOL      0.420545
    184 O28         5.0600   -0.4780    1.2820 oh        1 MOL     -0.898454
    185 H83         5.0990   -1.3990    1.5320 ho        1 MOL      0.420545
    186 H84         5.1320   -0.0050    2.1090 ho        1 MOL      0.420545
    187 O29         1.3810    0.6920   -1.7870 oh        1 MOL     -0.898454
    188 H85         1.5210   -0.0840   -2.3350 ho        1 MOL      0.420545
    189 H86         2.0380    1.3160   -2.0890 ho        1 MOL      0.420545
@<TRIPOS>BOND
     1    1    2 1   
     2    1    4 1   
     3    1    5 1   
     4    1    6 1   
     5    2    3 2   
     6    2    7 1   
     7    7    8 1   
     8    7   15 1   
     9    8    9 1   
    10    8   11 1   
    11    8   16 1   
    12    9   10 2   
    13    9   19 1   
    14   11   12 1   
    15   11   17 1   
    16   11   18 1   
    17   12   13 1   
    18   12   14 1   
    19   19   20 1   
    20   19   27 1   
    21   20   21 1   
    22   20   23 1   
    23   20   28 1   
    24   21   22 2   
    25   21   38 1   
    26   23   24 1   
    27   23   25 1   
    28   23   29 1   
    29   24   26 1   
    30   24   30 1   
    31   24   31 1   
    32   25   32 1   
    33   25   33 1   
    34   25   34 1   
    35   26   35 1   
    36   26   36 1   
    37   26   37 1   
    38   38   39 1   
    39   38   46 1   
    40   39   40 1   
    41   39   42 1   
    42   39   47 1   
    43   40   41 2   
    44   40   50 1   
    45   42   43 1   
    46   42   48 1   
    47   42   49 1   
    48   43   44 1   
    49   43   45 1   
    50   50   51 1   
    51   50   54 1   
    52   51   52 1   
    53   51   55 1   
    54   51   56 1   
    55   52   53 2   
    56   52   57 1   
    57   57   58 1   
    58   57   65 1   
    59   58   59 1   
    60   58   61 1   
    61   58   66 1   
    62   59   60 2   
    63   59   69 1   
    64   61   62 1   
    65   61   67 1   
    66   61   68 1   
    67   62   63 1   
    68   62   64 1   
    69   69   70 1   
    70   69   73 1   
    71   70   71 1   
    72   70   74 1   
    73   70   75 1   
    74   71   72 2   
    75   71   76 1   
    76   76   77 1   
    77   76   85 1   
    78   77   78 1   
    79   77   80 1   
    80   77   86 1   
    81   78   79 2   
    82   78   93 1   
    83   80   81 1   
    84   80   87 1   
    85   80   88 1   
    86   81   82 1   
    87   81   89 1   
    88   81   90 1   
    89   82   83 1   
    90   82   84 2   
    91   83   91 1   
    92   83   92 1   
    93   93   94 1   
    94   93  100 1   
    95   94   95 1   
    96   94   97 1   
    97   94  101 1   
    98   95   96 2   
    99   95  109 1   
   100   97   98 1   
   101   97   99 1   
   102   97  102 1   
   103   98  103 1   
   104   98  104 1   
   105   98  105 1   
   106   99  106 1   
   107   99  107 1   
   108   99  108 1   
   109  109  110 1   
   110  109  117 1   
   111  110  111 1   
   112  110  113 1   
   113  110  118 1   
   114  111  112 2   
   115  111  123 1   
   116  113  114 1   
   117  113  119 1   
   118  113  120 1   
   119  114  115 1   
   120  114  116 2   
   121  115  121 1   
   122  115  122 1   
   123  123  124 1   
   124  123  135 1   
   125  124  125 1   
   126  124  127 1   
   127  124  136 1   
   128  125  126 2   
   129  125  144 1   
   130  127  128 1   
   131  127  137 1   
   132  127  138 1   
   133  128  129 ar  
   134  128  130 ar  
   135  129  131 ar  
   136  129  139 1   
   137  130  132 ar  
   138  130  140 1   
   139  131  133 ar  
   140  131  141 1   
   141  132  133 ar  
   142  132  142 1   
   143  133  134 1   
   144  134  143 1   
   145  144  145 1   
   146  144  153 1   
   147  145  146 1   
   148  145  148 1   
   149  145  154 1   
   150  146  147 2   
   151  146  159 1   
   152  148  149 1   
   153  148  155 1   
   154  148  156 1   
   155  149  150 1   
   156  149  157 1   
   157  149  158 1   
   158  150  151 1   
   159  150  152 1   
   160  159  160 1   
   161  159  168 1   
   162  160  161 1   
   163  160  163 1   
   164  160  169 1   
   165  161  162 2   
   166  161  174 1   
   167  163  164 1   
   168  163  170 1   
   169  163  171 1   
   170  164  165 1   
   171  164  172 1   
   172  164  173 1   
   173  165  166 1   
   174  165  167 1   
   175  174  175 1   
   176  174  179 1   
   177  175  176 1   
   178  175  177 1   
   179  175  178 1   
   180  181  182 1   
   181  181  183 1   
   182  184  185 1   
   183  184  186 1   
   184  187  188 1   
   185  187  189 1   
@<TRIPOS>SUBSTRUCTURE
     1 MOL         1 TEMP              0 ****  ****    0 ROOT
