@<TRIPOS>MOLECULE
MOL
  179   176     1     0     0
SMALL
resp


@<TRIPOS>ATOM
      1 C1          2.2100    2.2880    5.8470 c3        1 MOL     -0.322376
      2 C2          1.7160    2.2430    4.3760 c         1 MOL      0.835070
      3 O1          2.4090    2.6030    3.4620 o         1 MOL     -0.599835
      4 H1          2.9410    3.0900    5.9600 hc        1 MOL      0.074246
      5 H2          1.3650    2.4720    6.5100 hc        1 MOL      0.074246
      6 H3          2.6740    1.3360    6.1060 hc        1 MOL      0.074246
      7 N1          0.3580    1.9590    4.3520 n         1 MOL     -0.708942
      8 C3         -0.4240    1.9300    3.1280 c3        1 MOL     -0.082029
      9 C4         -0.5400    3.3830    2.5800 c         1 MOL      0.720554
     10 O2         -0.9610    4.3670    3.2160 o         1 MOL     -0.565807
     11 C5         -1.8110    1.3400    3.4070 c3        1 MOL      0.135189
     12 C6         -2.8030    1.1770    2.2170 c         1 MOL      0.597601
     13 O3         -3.9810    0.8090    2.3950 o         1 MOL     -0.675357
     14 O4         -2.2670    1.4950    1.1230 o         1 MOL     -0.675357
     15 H4         -0.0610    1.8600    5.2740 hn        1 MOL      0.348709
     16 H5          0.0790    1.2690    2.4300 h1        1 MOL      0.140406
     17 H6         -2.2730    2.0160    4.1180 hc        1 MOL     -0.032898
     18 H7         -1.8150    0.3460    3.8560 hc        1 MOL     -0.032898
     19 N2         -0.0570    3.5620    1.2990 n         1 MOL     -0.392319
     20 C7          0.1570    4.9590    0.7250 c3        1 MOL     -0.192635
     21 C8         -1.0580    5.5710   -0.0100 c         1 MOL      0.614022
     22 O5         -1.2480    6.7870   -0.0760 o         1 MOL     -0.575370
     23 C9          1.3920    4.7650   -0.2090 c3        1 MOL     -0.003202
     24 C10         2.0090    6.1340   -0.7340 c3        1 MOL     -0.244458
     25 C11         3.3010    5.7830   -1.4220 c3        1 MOL     -0.096676
     26 C12         3.9760    7.0370   -1.9750 c3        1 MOL      0.115231
     27 N3          4.9660    6.7870   -3.0190 n4        1 MOL     -0.425821
     28 H8          0.1110    2.7070    0.7870 hn        1 MOL      0.258263
     29 H9          0.4150    5.7010    1.4740 h1        1 MOL      0.141632
     30 H10         1.2450    4.1140   -1.0690 hc        1 MOL      0.118599
     31 H11         2.1280    4.2740    0.4300 hc        1 MOL      0.118599
     32 H12         2.0830    6.8260    0.1010 hc        1 MOL      0.093900
     33 H13         1.2980    6.5940   -1.4370 hc        1 MOL      0.093900
     34 H14         3.1250    5.0610   -2.2250 hc        1 MOL      0.074828
     35 H15         4.0160    5.3310   -0.7400 hc        1 MOL      0.074828
     36 H16         4.4780    7.6850   -1.2440 hx        1 MOL      0.076036
     37 H17         3.1940    7.7490   -2.2500 hx        1 MOL      0.076036
     38 H18         5.1770    7.6320   -3.5410 hn        1 MOL      0.339993
     39 H19         5.8490    6.4270   -2.6950 hn        1 MOL      0.339993
     40 H20         4.6540    6.1160   -3.6960 hn        1 MOL      0.339993
     41 N4         -1.9910    4.7440   -0.6020 n         1 MOL     -0.422296
     42 C13        -3.0980    5.1410   -1.5620 c3        1 MOL      0.100415
     43 C14        -4.3820    4.4600   -0.9530 c         1 MOL      0.413584
     44 O6         -5.4630    4.7370   -1.4590 o         1 MOL     -0.523616
     45 C15        -2.8320    4.6370   -2.9780 c3        1 MOL     -0.306587
     46 C16        -2.7870    3.0810   -2.9980 c         1 MOL      0.857247
     47 O7         -2.8550    2.5960   -4.1560 o         1 MOL     -0.707248
     48 O8         -2.6030    2.3640   -1.9810 o         1 MOL     -0.707248
     49 H21        -1.8620    3.7970   -0.2790 hn        1 MOL      0.138752
     50 H22        -3.1430    6.2270   -1.5150 h1        1 MOL      0.107905
     51 H23        -1.8780    5.0990   -3.2550 hc        1 MOL      0.082772
     52 H24        -3.6040    4.9990   -3.6690 hc        1 MOL      0.082772
     53 N5         -4.2610    3.6960    0.1270 n         1 MOL     -0.156353
     54 C17        -5.4280    3.2340    0.8850 c3        1 MOL     -0.362934
     55 C18        -6.2670    2.1080    0.3150 c         1 MOL      0.591415
     56 O9         -7.4190    1.8680    0.6390 o         1 MOL     -0.610756
     57 H25        -3.3620    3.5160    0.5530 hn        1 MOL      0.207391
     58 H26        -6.1740    4.0320    0.9480 h1        1 MOL      0.163045
     59 H27        -5.1530    3.0420    1.9250 h1        1 MOL      0.163045
     60 N6         -5.7820    1.4440   -0.6890 n         1 MOL     -0.126643
     61 C19        -6.4560    0.3340   -1.3700 c3        1 MOL      0.084705
     62 C20        -6.7020   -0.9320   -0.4310 c         1 MOL      0.346404
     63 O10        -7.3110   -1.9230   -0.8430 o         1 MOL     -0.499215
     64 C21        -5.6410   -0.2120   -2.5780 c3        1 MOL     -0.375229
     65 C22        -4.6290   -1.3060   -2.1800 c         1 MOL      0.622565
     66 N7         -4.7970   -2.5040   -2.7060 n         1 MOL     -0.672716
     67 O11        -3.7260   -1.1520   -1.4000 o         1 MOL     -0.679387
     68 H28        -4.8390    1.6820   -0.9530 hn        1 MOL      0.030092
     69 H29        -7.4320    0.6890   -1.6940 h1        1 MOL      0.101655
     70 H30        -5.1180    0.5650   -3.1200 hc        1 MOL      0.131061
     71 H31        -6.3620   -0.6800   -3.2520 hc        1 MOL      0.131061
     72 H32        -5.4000   -2.6240   -3.4990 hn        1 MOL      0.333637
     73 H33        -4.4450   -3.3730   -2.3320 hn        1 MOL      0.333637
     74 N8         -6.1870   -0.8850    0.8520 n         1 MOL     -0.050724
     75 C23        -6.5590   -1.8130    1.8910 c3        1 MOL     -0.280237
     76 C24        -5.4080   -2.6450    2.4290 c         1 MOL      0.494651
     77 O12        -5.6000   -3.5140    3.3260 o         1 MOL     -0.567862
     78 H34        -5.5560   -0.1380    1.1140 hn        1 MOL      0.210086
     79 H35        -7.4030   -2.4350    1.6070 h1        1 MOL      0.134316
     80 H36        -6.7930   -1.1900    2.7630 h1        1 MOL      0.134316
     81 N9         -4.2890   -2.5630    1.7000 n         1 MOL     -0.127032
     82 C25        -3.1020   -3.3870    1.8770 c3        1 MOL     -0.024642
     83 C26        -1.8370   -2.6550    1.6420 c         1 MOL      0.684035
     84 O13        -1.7510   -1.5280    1.0760 o         1 MOL     -0.658687
     85 C27        -3.3670   -4.7730    1.2540 c3        1 MOL     -0.091898
     86 C28        -3.4470   -4.8840   -0.2590 ca        1 MOL      0.208813
     87 C29        -2.2360   -5.0260   -0.9690 ca        1 MOL     -0.286370
     88 C30        -4.6990   -5.1030   -0.8560 ca        1 MOL     -0.286370
     89 C31        -2.3020   -5.3150   -2.3580 ca        1 MOL     -0.113672
     90 C32        -4.7170   -5.6160   -2.2010 ca        1 MOL     -0.113672
     91 C33        -3.4960   -5.5790   -2.9580 ca        1 MOL      0.117185
     92 O14        -3.5860   -5.9470   -4.2200 oh        1 MOL     -0.423938
     93 H37        -4.3350   -1.7830    1.0670 hn        1 MOL      0.159372
     94 H38        -3.1260   -3.6630    2.9360 h1        1 MOL      0.043281
     95 H39        -4.1940   -5.3680    1.6590 hc        1 MOL      0.053087
     96 H40        -2.4790   -5.3550    1.5180 hc        1 MOL      0.053087
     97 H41        -1.2690   -4.9400   -0.4970 ha        1 MOL      0.178370
     98 H42        -5.5870   -4.9800   -0.2530 ha        1 MOL      0.178370
     99 H43        -1.3540   -5.4390   -2.8580 ha        1 MOL      0.129491
    100 H44        -5.6260   -5.8770   -2.7160 ha        1 MOL      0.129491
    101 H45        -2.7130   -6.0070   -4.6270 ho        1 MOL      0.351148
    102 N10        -0.7530   -3.3310    2.0850 n         1 MOL     -0.670442
    103 C34         0.5790   -2.9000    1.9680 c3        1 MOL      0.210983
    104 C35         1.2680   -3.7440    0.8500 c         1 MOL      0.256211
    105 O15         1.1590   -4.9550    0.8690 o         1 MOL     -0.490997
    106 C36         1.3890   -2.9590    3.2920 c3        1 MOL      0.296524
    107 C37         0.5750   -2.1820    4.3520 c3        1 MOL      0.036257
    108 C38         2.7540   -2.2470    3.1460 c3        1 MOL     -0.430266
    109 C39         1.1670   -2.5200    5.7120 c3        1 MOL     -0.230138
    110 H46        -0.9620   -4.0740    2.7290 hn        1 MOL      0.348717
    111 H47         0.6060   -1.8660    1.5940 h1        1 MOL      0.019057
    112 H48         1.5670   -4.0070    3.5470 hc        1 MOL     -0.028133
    113 H49        -0.4300   -2.6140    4.3510 hc        1 MOL      0.004103
    114 H50         0.6810   -1.1500    4.0220 hc        1 MOL      0.004103
    115 H51         3.2890   -2.7940    2.3690 hc        1 MOL      0.079963
    116 H52         2.7010   -1.1800    2.9410 hc        1 MOL      0.079963
    117 H53         3.4070   -2.3300    4.0140 hc        1 MOL      0.079963
    118 H54         2.2100   -2.2140    5.7940 hc        1 MOL      0.056608
    119 H55         0.6040   -1.8850    6.3890 hc        1 MOL      0.056608
    120 H56         1.0380   -3.5670    5.9700 hc        1 MOL      0.056608
    121 N11         2.1530   -3.0390    0.1050 n         1 MOL     -0.071245
    122 C40         3.2000   -3.6240   -0.8120 c3        1 MOL     -0.051070
    123 C41         4.6630   -3.3010   -0.5320 c         1 MOL      0.432889
    124 O16         4.9120   -2.2150    0.0290 o         1 MOL     -0.379690
    125 C42         2.7280   -3.4480   -2.3040 c3        1 MOL     -0.045170
    126 O17         2.6740   -2.0730   -2.6740 oh        1 MOL     -0.519503
    127 H57         2.2220   -2.0290    0.1970 hn        1 MOL      0.305482
    128 H58         3.0930   -4.6880   -0.5790 h1        1 MOL      0.069343
    129 H59         1.7590   -3.9260   -2.4440 h1        1 MOL      0.065481
    130 H60         3.4420   -3.9670   -2.9410 h1        1 MOL      0.065481
    131 H61         2.6810   -2.0170   -3.6340 ho        1 MOL      0.408686
    132 N12         5.6500   -4.1570   -0.8660 n         1 MOL     -0.400094
    133 C43         7.0990   -3.8980   -0.6300 c3        1 MOL      0.088414
    134 C44         7.5500   -2.4980   -0.9790 c         1 MOL      0.411924
    135 O18         8.4460   -1.8740   -0.3190 o         1 MOL     -0.485702
    136 C45         7.8880   -4.9740   -1.4080 c3        1 MOL     -0.395633
    137 H62         5.4440   -5.1070   -1.1320 hn        1 MOL      0.287836
    138 H63         7.2820   -4.0490    0.4300 h1        1 MOL      0.106261
    139 H64         7.7680   -4.8010   -2.4770 hc        1 MOL      0.129282
    140 H65         8.9630   -4.7980   -1.3110 hc        1 MOL      0.129282
    141 H66         7.6810   -6.0110   -1.1130 hc        1 MOL      0.129282
    142 N13         7.0530   -1.8640   -2.0900 n         1 MOL     -0.293355
    143 C46         7.4140   -0.4930   -2.5580 c3        1 MOL      0.074673
    144 C47         6.9540    0.5210   -1.5210 c         1 MOL      0.337397
    145 O19         7.7590    1.4240   -1.2160 o         1 MOL     -0.514598
    146 C48         6.7880   -0.1670   -3.9240 c3        1 MOL     -0.313262
    147 H67         6.3690   -2.3980   -2.6120 hn        1 MOL      0.206140
    148 H68         8.4800   -0.4260   -2.7700 h1        1 MOL      0.106236
    149 H69         7.0770   -0.9300   -4.6410 hc        1 MOL      0.092586
    150 H70         5.7010   -0.1540   -3.8150 hc        1 MOL      0.092586
    151 H71         7.2170    0.7690   -4.2860 hc        1 MOL      0.092586
    152 N14         5.7690    0.4280   -0.9820 n         1 MOL     -0.086952
    153 C49         5.2260    1.2660    0.0660 c3        1 MOL     -0.153038
    154 C50         6.0060    1.0420    1.4190 c         1 MOL      0.469068
    155 O20         6.3960    1.9400    2.1220 o         1 MOL     -0.531496
    156 C51         3.7890    0.9880    0.2920 c3        1 MOL      0.212613
    157 C52         2.9880    1.4880   -0.8850 c3        1 MOL      0.054298
    158 C53         1.4930    1.0440   -0.8570 c         1 MOL      0.624144
    159 O21         0.7720    1.2720   -1.8850 o         1 MOL     -0.784730
    160 O22         0.8950    0.6940    0.1660 o         1 MOL     -0.784730
    161 H72         5.2060   -0.3540   -1.2610 hn        1 MOL      0.179721
    162 H73         5.3680    2.2750   -0.3280 h1        1 MOL      0.075065
    163 H74         3.4090    1.5470    1.1370 hc        1 MOL     -0.053714
    164 H75         3.5850   -0.0710    0.3970 hc        1 MOL     -0.053714
    165 H76         3.4560    1.0370   -1.7590 hc        1 MOL     -0.078451
    166 H77         3.0930    2.5640   -0.9950 hc        1 MOL     -0.078451
    167 N15         6.3120   -0.2210    1.7130 n         1 MOL     -0.062633
    168 C54         7.0040   -0.6090    2.9360 c3        1 MOL     -0.286499
    169 H78         8.0120   -0.9480    2.6920 h1        1 MOL      0.111308
    170 H79         7.0630    0.2470    3.6080 h1        1 MOL      0.111308
    171 H80         6.4580   -1.4170    3.4230 h1        1 MOL      0.111308
    172 H81         6.0490   -0.9350    1.0550 hn        1 MOL      0.086297
    173 Ca1        -1.4330    0.1820   -1.0810 Ca        1 MOL      1.809735
    174 O23         0.0610   -1.7540   -2.0140 oh        1 MOL     -0.846100
    175 H82        -0.1700   -2.2560   -2.7960 ho        1 MOL      0.386615
    176 H83         0.9990   -1.8950   -1.8930 ho        1 MOL      0.386615
    177 O24        -2.0640    0.0690   -3.6680 oh        1 MOL     -0.846100
    178 H84        -2.4890   -0.5320   -4.2910 ho        1 MOL      0.386615
    179 H85        -2.4540    0.9250   -3.8620 ho        1 MOL      0.386615
@<TRIPOS>BOND
     1    1    2 1   
     2    1    4 1   
     3    1    5 1   
     4    1    6 1   
     5    2    3 2   
     6    2    7 1   
     7    7    8 1   
     8    7   15 1   
     9    8    9 1   
    10    8   11 1   
    11    8   16 1   
    12    9   10 2   
    13    9   19 1   
    14   11   12 1   
    15   11   17 1   
    16   11   18 1   
    17   12   13 1   
    18   12   14 1   
    19   19   20 1   
    20   19   28 1   
    21   20   21 1   
    22   20   23 1   
    23   20   29 1   
    24   21   22 2   
    25   21   41 1   
    26   23   24 1   
    27   23   30 1   
    28   23   31 1   
    29   24   25 1   
    30   24   32 1   
    31   24   33 1   
    32   25   26 1   
    33   25   34 1   
    34   25   35 1   
    35   26   27 1   
    36   26   36 1   
    37   26   37 1   
    38   27   38 1   
    39   27   39 1   
    40   27   40 1   
    41   41   42 1   
    42   41   49 1   
    43   42   43 1   
    44   42   45 1   
    45   42   50 1   
    46   43   44 2   
    47   43   53 1   
    48   45   46 1   
    49   45   51 1   
    50   45   52 1   
    51   46   47 1   
    52   46   48 1   
    53   53   54 1   
    54   53   57 1   
    55   54   55 1   
    56   54   58 1   
    57   54   59 1   
    58   55   56 2   
    59   55   60 1   
    60   60   61 1   
    61   60   68 1   
    62   61   62 1   
    63   61   64 1   
    64   61   69 1   
    65   62   63 2   
    66   62   74 1   
    67   64   65 1   
    68   64   70 1   
    69   64   71 1   
    70   65   66 1   
    71   65   67 2   
    72   66   72 1   
    73   66   73 1   
    74   74   75 1   
    75   74   78 1   
    76   75   76 1   
    77   75   79 1   
    78   75   80 1   
    79   76   77 2   
    80   76   81 1   
    81   81   82 1   
    82   81   93 1   
    83   82   83 1   
    84   82   85 1   
    85   82   94 1   
    86   83   84 2   
    87   83  102 1   
    88   85   86 1   
    89   85   95 1   
    90   85   96 1   
    91   86   87 ar  
    92   86   88 ar  
    93   87   89 ar  
    94   87   97 1   
    95   88   90 ar  
    96   88   98 1   
    97   89   91 ar  
    98   89   99 1   
    99   90   91 ar  
   100   90  100 1   
   101   91   92 1   
   102   92  101 1   
   103  102  103 1   
   104  102  110 1   
   105  103  104 1   
   106  103  106 1   
   107  103  111 1   
   108  104  105 2   
   109  104  121 1   
   110  106  107 1   
   111  106  108 1   
   112  106  112 1   
   113  107  109 1   
   114  107  113 1   
   115  107  114 1   
   116  108  115 1   
   117  108  116 1   
   118  108  117 1   
   119  109  118 1   
   120  109  119 1   
   121  109  120 1   
   122  121  122 1   
   123  121  127 1   
   124  122  123 1   
   125  122  125 1   
   126  122  128 1   
   127  123  124 2   
   128  123  132 1   
   129  125  126 1   
   130  125  129 1   
   131  125  130 1   
   132  126  131 1   
   133  132  133 1   
   134  132  137 1   
   135  133  134 1   
   136  133  136 1   
   137  133  138 1   
   138  134  135 2   
   139  134  142 1   
   140  136  139 1   
   141  136  140 1   
   142  136  141 1   
   143  142  143 1   
   144  142  147 1   
   145  143  144 1   
   146  143  146 1   
   147  143  148 1   
   148  144  145 2   
   149  144  152 1   
   150  146  149 1   
   151  146  150 1   
   152  146  151 1   
   153  152  153 1   
   154  152  161 1   
   155  153  154 1   
   156  153  156 1   
   157  153  162 1   
   158  154  155 2   
   159  154  167 1   
   160  156  157 1   
   161  156  163 1   
   162  156  164 1   
   163  157  158 1   
   164  157  165 1   
   165  157  166 1   
   166  158  159 1   
   167  158  160 1   
   168  167  168 1   
   169  167  172 1   
   170  168  169 1   
   171  168  170 1   
   172  168  171 1   
   173  174  175 1   
   174  174  176 1   
   175  177  178 1   
   176  177  179 1   
@<TRIPOS>SUBSTRUCTURE
     1 MOL         1 TEMP              0 ****  ****    0 ROOT
