@<TRIPOS>MOLECULE
MOL
  186   183     1     0     0
SMALL
resp


@<TRIPOS>ATOM
      1 C1          0.3930   -1.2510    6.3900 c3        1 MOL     -0.207270
      2 C2          0.7230   -1.4960    4.9030 c         1 MOL      0.738802
      3 O1         -0.2060   -1.7630    4.1110 o         1 MOL     -0.552373
      4 H1         -0.6010   -0.8100    6.4720 hc        1 MOL      0.042827
      5 H2          0.4150   -2.1980    6.9290 hc        1 MOL      0.042827
      6 H3          1.1290   -0.5710    6.8190 hc        1 MOL      0.042827
      7 N1          2.0450   -1.3550    4.5350 n         1 MOL     -0.663206
      8 C3          2.4990   -1.4570    3.1490 c3        1 MOL      0.067542
      9 C4          2.9360   -2.8080    2.8400 c         1 MOL      0.620435
     10 O2          3.8420   -3.3680    3.4490 o         1 MOL     -0.578556
     11 C5          3.6890   -0.5490    3.0520 c3        1 MOL     -0.355184
     12 C6          4.3920   -0.6200    1.6920 c         1 MOL      0.891483
     13 O3          5.5640   -0.2240    1.6490 o         1 MOL     -0.728733
     14 O4          3.7680   -0.9830    0.6840 o         1 MOL     -0.728733
     15 H4          2.7560   -1.1650    5.2200 hn        1 MOL      0.359742
     16 H5          1.7110   -1.0420    2.5210 h1        1 MOL      0.090042
     17 H6          4.4000   -0.8160    3.8320 hc        1 MOL      0.072002
     18 H7          3.2780    0.4590    3.1330 hc        1 MOL      0.072002
     19 N2          2.3080   -3.4830    1.8620 n         1 MOL     -0.408932
     20 C7          2.3620   -4.9550    1.4630 c3        1 MOL     -0.038653
     21 C8          3.5040   -5.1430    0.4520 c         1 MOL      0.429676
     22 O5          4.0850   -6.2470    0.4330 o         1 MOL     -0.566401
     23 C9          0.9280   -5.2890    0.9720 c3        1 MOL      0.116417
     24 C10        -0.0540   -5.1430    2.1740 c3        1 MOL      0.359486
     25 C11         0.8460   -6.6650    0.3090 c3        1 MOL     -0.476903
     26 C12        -1.5130   -5.3690    1.7070 c3        1 MOL     -0.329238
     27 H8          1.7340   -2.8890    1.2780 hn        1 MOL      0.132941
     28 H9          2.5930   -5.6030    2.3140 h1        1 MOL      0.085893
     29 H10         0.5880   -4.6090    0.1850 hc        1 MOL      0.058361
     30 H11         0.0200   -4.1660    2.6500 hc        1 MOL     -0.084395
     31 H12         0.1910   -5.8170    2.9970 hc        1 MOL     -0.084395
     32 H13         1.2850   -7.3730    1.0150 hc        1 MOL      0.113584
     33 H14        -0.1520   -6.9030   -0.0460 hc        1 MOL      0.113584
     34 H15         1.3790   -6.6570   -0.6450 hc        1 MOL      0.113584
     35 H16        -2.0880   -4.5470    2.1350 hc        1 MOL      0.067674
     36 H17        -1.5130   -5.4000    0.6200 hc        1 MOL      0.067674
     37 H18        -1.7870   -6.3260    2.1570 hc        1 MOL      0.067674
     38 N3          3.7180   -4.2340   -0.4970 n         1 MOL     -0.203760
     39 C13         4.5630   -4.4870   -1.6480 c3        1 MOL      0.059549
     40 C14         5.8990   -3.7980   -1.4620 c         1 MOL      0.410928
     41 O6          6.7880   -4.0230   -2.3170 o         1 MOL     -0.539618
     42 C15         3.9580   -4.0700   -3.0160 c3        1 MOL     -0.236574
     43 C16         3.3770   -2.6280   -2.9680 c         1 MOL      0.791293
     44 O7          3.8570   -1.7360   -2.1970 o         1 MOL     -0.723557
     45 O8          2.3780   -2.3610   -3.7160 o         1 MOL     -0.723557
     46 H19         3.1500   -3.4030   -0.5420 hn        1 MOL      0.207401
     47 H20         4.8480   -5.5380   -1.6760 h1        1 MOL      0.067578
     48 H21         3.1580   -4.7390   -3.3300 hc        1 MOL      0.056823
     49 H22         4.7460   -4.0530   -3.7720 hc        1 MOL      0.056823
     50 N4          5.9840   -3.0120   -0.3840 n         1 MOL     -0.242838
     51 C17         7.2580   -2.4860    0.1770 c3        1 MOL     -0.166413
     52 C18         7.8020   -1.3060   -0.6640 c         1 MOL      0.408781
     53 O9          9.0410   -1.3430   -0.9860 o         1 MOL     -0.609152
     54 H23         5.1560   -2.9330    0.1830 hn        1 MOL      0.241583
     55 H24         7.9670   -3.3160    0.2210 h1        1 MOL      0.107714
     56 H25         7.1360   -2.2090    1.2190 h1        1 MOL      0.107714
     57 N5          7.0100   -0.4410   -1.1670 n         1 MOL     -0.020342
     58 C19         7.4290    0.7960   -1.9140 c3        1 MOL     -0.007737
     59 C20         7.6250    1.9560   -0.9260 c         1 MOL      0.441122
     60 O10         8.4680    2.8800   -1.1670 o         1 MOL     -0.597428
     61 C21         6.4850    1.1650   -2.9800 c3        1 MOL     -0.124038
     62 C22         4.9630    1.2430   -2.5800 c         1 MOL      0.745545
     63 O11         4.6350    1.6240   -1.4300 o         1 MOL     -0.724368
     64 O12         4.1040    0.9750   -3.3800 o         1 MOL     -0.724368
     65 H26         6.0370   -0.5640   -0.9330 hn        1 MOL      0.067443
     66 H27         8.4410    0.6800   -2.2910 h1        1 MOL      0.086760
     67 H28         6.5230    0.4550   -3.8080 hc        1 MOL      0.029806
     68 H29         6.7590    2.1220   -3.4310 hc        1 MOL      0.029806
     69 N6          7.1100    1.8320    0.2610 n         1 MOL     -0.210467
     70 C23         7.1340    2.8560    1.3260 c3        1 MOL      0.069725
     71 C24         5.9670    3.8430    1.3440 c         1 MOL      0.504029
     72 O13         6.0440    4.9770    1.8040 o         1 MOL     -0.611613
     73 H30         6.6680    0.9780    0.5440 hn        1 MOL      0.189474
     74 H31         8.0250    3.4670    1.3610 h1        1 MOL      0.030106
     75 H32         7.3020    2.4030    2.2980 h1        1 MOL      0.030106
     76 N7          4.8420    3.4290    0.7360 n         1 MOL     -0.319960
     77 C25         3.4950    4.1340    0.7680 c3        1 MOL      0.021237
     78 C26         2.3420    3.1610    0.8330 c         1 MOL      0.733630
     79 O14         2.4560    1.9710    0.6140 o         1 MOL     -0.630553
     80 C27         3.3830    5.1830   -0.3760 c3        1 MOL     -0.395040
     81 C28         4.3110    6.4050   -0.1810 c3        1 MOL     -0.053920
     82 C29         3.7720    7.6570   -0.9050 c         1 MOL      0.540459
     83 N8          4.5090    8.7330   -0.8540 n         1 MOL     -0.700917
     84 O15         2.7680    7.6420   -1.6260 o         1 MOL     -0.553895
     85 H33         4.8550    2.5290    0.2780 hn        1 MOL      0.181043
     86 H34         3.3960    4.6770    1.7040 h1        1 MOL      0.043046
     87 H35         2.3610    5.5360   -0.4670 hc        1 MOL      0.154044
     88 H36         3.6060    4.5880   -1.2590 hc        1 MOL      0.154044
     89 H37         5.3000    6.2320   -0.6210 hc        1 MOL      0.098173
     90 H38         4.3640    6.7860    0.8320 hc        1 MOL      0.098173
     91 H39         5.2810    8.8830   -0.2300 hn        1 MOL      0.321829
     92 H40         3.9520    9.5130   -1.1880 hn        1 MOL      0.321829
     93 N9          1.1110    3.6900    1.1770 n         1 MOL     -0.613291
     94 C30        -0.0810    2.8330    1.5920 c3        1 MOL      0.007970
     95 C31        -1.3100    3.1960    0.7230 c         1 MOL      0.466765
     96 O16        -2.0950    4.1620    0.8880 o         1 MOL     -0.564306
     97 C32        -0.5840    2.9880    3.0720 c3        1 MOL      0.421973
     98 C33        -1.6630    1.9350    3.2990 c3        1 MOL     -0.562903
     99 C34         0.5990    2.6240    4.0540 c3        1 MOL     -0.562903
    100 H41         1.0200    4.6800    1.3590 hn        1 MOL      0.320042
    101 H42         0.1850    1.7800    1.5870 h1        1 MOL      0.164982
    102 H43        -0.9830    3.9890    3.2530 hc        1 MOL     -0.064565
    103 H44        -1.2240    0.9500    3.1960 hc        1 MOL      0.130152
    104 H45        -1.8990    1.9490    4.3550 hc        1 MOL      0.130152
    105 H46        -2.4390    1.9770    2.5280 hc        1 MOL      0.130152
    106 H47         0.3280    2.7030    5.1030 hc        1 MOL      0.130152
    107 H48         0.9810    1.6590    3.7500 hc        1 MOL      0.130152
    108 H49         1.2470    3.4220    3.6770 hc        1 MOL      0.130152
    109 N10        -1.6200    2.3420   -0.2850 n         1 MOL     -0.376553
    110 C35        -2.7940    2.4600   -1.1760 c3        1 MOL      0.283712
    111 C36        -4.0810    2.0790   -0.4890 c         1 MOL      0.198875
    112 O17        -4.0440    1.4480    0.5590 o         1 MOL     -0.227305
    113 C37        -2.5210    1.5630   -2.3980 c3        1 MOL     -0.428781
    114 C38        -3.7000    1.5790   -3.3890 c         1 MOL      0.728235
    115 N11        -4.0620    2.7520   -3.9310 n         1 MOL     -0.823944
    116 O18        -4.2600    0.5570   -3.6530 o         1 MOL     -0.534503
    117 H50        -1.0660    1.5000   -0.3560 hn        1 MOL      0.282224
    118 H51        -2.8060    3.4790   -1.5790 h1        1 MOL      0.021752
    119 H52        -2.3550    0.5180   -2.1220 hc        1 MOL      0.122940
    120 H53        -1.6010    1.9150   -2.8580 hc        1 MOL      0.122940
    121 H54        -3.6430    3.6260   -3.6610 hn        1 MOL      0.358428
    122 H55        -4.7650    2.8230   -4.6530 hn        1 MOL      0.358428
    123 N12        -5.3200    2.3830   -0.9940 n         1 MOL     -0.426574
    124 C39        -6.5970    2.0530   -0.3460 c3        1 MOL      0.358745
    125 C40        -6.8380    0.5000   -0.3590 c         1 MOL      0.703250
    126 O19        -7.2020   -0.0110    0.6810 o         1 MOL     -0.547811
    127 C41        -7.7210    2.8780   -1.0200 c3        1 MOL     -0.321988
    128 C42        -9.0720    2.5880   -0.3030 ca        1 MOL      0.105272
    129 C43        -9.3960    3.1950    0.9120 ca        1 MOL     -0.247471
    130 C44       -10.0520    1.7820   -0.9580 ca        1 MOL     -0.247471
    131 C45       -10.6330    2.9650    1.5420 ca        1 MOL     -0.084008
    132 C46       -11.3090    1.6060   -0.3620 ca        1 MOL     -0.084008
    133 C47       -11.5810    2.2430    0.8430 ca        1 MOL      0.111759
    134 O20       -12.6780    1.9200    1.5400 oh        1 MOL     -0.456806
    135 H56        -5.2800    3.0270   -1.7710 hn        1 MOL      0.200224
    136 H57        -6.5880    2.3150    0.7080 h1        1 MOL     -0.008356
    137 H58        -7.6470    2.5240   -2.0430 hc        1 MOL      0.091504
    138 H59        -7.4570    3.9340   -0.9520 hc        1 MOL      0.091504
    139 H60        -8.6960    3.8710    1.3750 ha        1 MOL      0.140709
    140 H61        -9.8360    1.4770   -1.9690 ha        1 MOL      0.140709
    141 H62       -10.8790    3.2680    2.5450 ha        1 MOL      0.118851
    142 H63       -12.0220    0.9210   -0.8060 ha        1 MOL      0.118851
    143 H64       -13.2980    1.4260    0.9860 ho        1 MOL      0.360187
    144 N13        -6.3980   -0.2200   -1.4240 n         1 MOL     -0.591891
    145 C48        -6.3540   -1.7360   -1.5040 c3        1 MOL     -0.021266
    146 C49        -5.5080   -2.3660   -0.3710 c         1 MOL      0.291195
    147 O21        -5.8140   -3.4810    0.1260 o         1 MOL     -0.470013
    148 C50        -5.8400   -2.2480   -2.8190 c3        1 MOL      0.229815
    149 C51        -5.7560   -3.7400   -3.1820 c3        1 MOL     -0.342156
    150 C52        -7.1820   -4.2870   -3.3180 c         1 MOL      0.783788
    151 O22        -8.1580   -3.5930   -3.0090 o         1 MOL     -0.758107
    152 O23        -7.3020   -5.4270   -3.7540 o         1 MOL     -0.758107
    153 H65        -6.2170    0.2980   -2.2640 hn        1 MOL      0.273536
    154 H66        -7.3620   -2.1180   -1.3990 h1        1 MOL      0.135723
    155 H67        -4.7990   -1.9810   -3.0270 hc        1 MOL     -0.034168
    156 H68        -6.4320   -1.7450   -3.5890 hc        1 MOL     -0.034168
    157 H69        -5.1540   -4.3050   -2.4730 hc        1 MOL      0.062241
    158 H70        -5.2940   -3.8170   -4.1660 hc        1 MOL      0.062241
    159 N14        -4.4000   -1.7140    0.0520 n         1 MOL     -0.120565
    160 C53        -3.6210   -1.9440    1.2370 c3        1 MOL      0.008054
    161 C54        -4.3120   -1.5280    2.5110 c         1 MOL      0.430189
    162 O24        -4.2850   -2.2620    3.5340 o         1 MOL     -0.593961
    163 C55        -2.1790   -1.2990    1.1380 c3        1 MOL      0.179978
    164 C56        -1.4020   -1.9010   -0.1110 c3        1 MOL     -0.053846
    165 C57         0.0090   -1.2090   -0.3820 c         1 MOL      0.685080
    166 O25         1.0550   -1.8820   -0.6320 o         1 MOL     -0.729948
    167 O26         0.0470    0.0230   -0.4020 o         1 MOL     -0.729948
    168 H71        -4.1820   -0.8630   -0.4450 hn        1 MOL      0.127821
    169 H72        -3.4500   -3.0200    1.3070 h1        1 MOL      0.034065
    170 H73        -1.6370   -1.5540    2.0490 hc        1 MOL     -0.032045
    171 H74        -2.1890   -0.2110    1.0330 hc        1 MOL     -0.032045
    172 H75        -1.9950   -1.9660   -1.0260 hc        1 MOL      0.006226
    173 H76        -1.2050   -2.9490    0.1210 hc        1 MOL      0.006226
    174 N15        -4.8050   -0.3410    2.5620 n         1 MOL      0.012536
    175 C58        -5.5790    0.1790    3.7120 c3        1 MOL     -0.334267
    176 H77        -6.3270    0.8870    3.3550 h1        1 MOL      0.106961
    177 H78        -6.0750   -0.6480    4.2200 h1        1 MOL      0.106961
    178 H79        -4.9060    0.6810    4.4060 h1        1 MOL      0.106961
    179 H80        -4.6380    0.2950    1.8020 hn        1 MOL      0.042757
    180 Ca1         2.5410    0.1960   -1.3110 Ca        1 MOL      1.795707
    181 O27         1.3890    2.1980   -2.5000 oh        1 MOL     -0.874854
    182 H81         0.7520    1.7160   -3.0280 ho        1 MOL      0.412086
    183 H82         1.8860    2.7080   -3.1380 ho        1 MOL      0.412086
    184 O28         0.6540   -0.3070   -3.5470 oh        1 MOL     -0.874854
    185 H83         1.0690   -1.1050   -3.8710 ho        1 MOL      0.412086
    186 H84        -0.1760   -0.2590   -4.0290 ho        1 MOL      0.412086
@<TRIPOS>BOND
     1    1    2 1   
     2    1    4 1   
     3    1    5 1   
     4    1    6 1   
     5    2    3 2   
     6    2    7 1   
     7    7    8 1   
     8    7   15 1   
     9    8    9 1   
    10    8   11 1   
    11    8   16 1   
    12    9   10 2   
    13    9   19 1   
    14   11   12 1   
    15   11   17 1   
    16   11   18 1   
    17   12   13 1   
    18   12   14 1   
    19   19   20 1   
    20   19   27 1   
    21   20   21 1   
    22   20   23 1   
    23   20   28 1   
    24   21   22 2   
    25   21   38 1   
    26   23   24 1   
    27   23   25 1   
    28   23   29 1   
    29   24   26 1   
    30   24   30 1   
    31   24   31 1   
    32   25   32 1   
    33   25   33 1   
    34   25   34 1   
    35   26   35 1   
    36   26   36 1   
    37   26   37 1   
    38   38   39 1   
    39   38   46 1   
    40   39   40 1   
    41   39   42 1   
    42   39   47 1   
    43   40   41 2   
    44   40   50 1   
    45   42   43 1   
    46   42   48 1   
    47   42   49 1   
    48   43   44 1   
    49   43   45 1   
    50   50   51 1   
    51   50   54 1   
    52   51   52 1   
    53   51   55 1   
    54   51   56 1   
    55   52   53 2   
    56   52   57 1   
    57   57   58 1   
    58   57   65 1   
    59   58   59 1   
    60   58   61 1   
    61   58   66 1   
    62   59   60 2   
    63   59   69 1   
    64   61   62 1   
    65   61   67 1   
    66   61   68 1   
    67   62   63 1   
    68   62   64 1   
    69   69   70 1   
    70   69   73 1   
    71   70   71 1   
    72   70   74 1   
    73   70   75 1   
    74   71   72 2   
    75   71   76 1   
    76   76   77 1   
    77   76   85 1   
    78   77   78 1   
    79   77   80 1   
    80   77   86 1   
    81   78   79 2   
    82   78   93 1   
    83   80   81 1   
    84   80   87 1   
    85   80   88 1   
    86   81   82 1   
    87   81   89 1   
    88   81   90 1   
    89   82   83 1   
    90   82   84 2   
    91   83   91 1   
    92   83   92 1   
    93   93   94 1   
    94   93  100 1   
    95   94   95 1   
    96   94   97 1   
    97   94  101 1   
    98   95   96 2   
    99   95  109 1   
   100   97   98 1   
   101   97   99 1   
   102   97  102 1   
   103   98  103 1   
   104   98  104 1   
   105   98  105 1   
   106   99  106 1   
   107   99  107 1   
   108   99  108 1   
   109  109  110 1   
   110  109  117 1   
   111  110  111 1   
   112  110  113 1   
   113  110  118 1   
   114  111  112 2   
   115  111  123 1   
   116  113  114 1   
   117  113  119 1   
   118  113  120 1   
   119  114  115 1   
   120  114  116 2   
   121  115  121 1   
   122  115  122 1   
   123  123  124 1   
   124  123  135 1   
   125  124  125 1   
   126  124  127 1   
   127  124  136 1   
   128  125  126 2   
   129  125  144 1   
   130  127  128 1   
   131  127  137 1   
   132  127  138 1   
   133  128  129 ar  
   134  128  130 ar  
   135  129  131 ar  
   136  129  139 1   
   137  130  132 ar  
   138  130  140 1   
   139  131  133 ar  
   140  131  141 1   
   141  132  133 ar  
   142  132  142 1   
   143  133  134 1   
   144  134  143 1   
   145  144  145 1   
   146  144  153 1   
   147  145  146 1   
   148  145  148 1   
   149  145  154 1   
   150  146  147 2   
   151  146  159 1   
   152  148  149 1   
   153  148  155 1   
   154  148  156 1   
   155  149  150 1   
   156  149  157 1   
   157  149  158 1   
   158  150  151 1   
   159  150  152 1   
   160  159  160 1   
   161  159  168 1   
   162  160  161 1   
   163  160  163 1   
   164  160  169 1   
   165  161  162 2   
   166  161  174 1   
   167  163  164 1   
   168  163  170 1   
   169  163  171 1   
   170  164  165 1   
   171  164  172 1   
   172  164  173 1   
   173  165  166 1   
   174  165  167 1   
   175  174  175 1   
   176  174  179 1   
   177  175  176 1   
   178  175  177 1   
   179  175  178 1   
   180  181  182 1   
   181  181  183 1   
   182  184  185 1   
   183  184  186 1   
@<TRIPOS>SUBSTRUCTURE
     1 MOL         1 TEMP              0 ****  ****    0 ROOT
