@<TRIPOS>MOLECULE
MOL
  182   178     1     0     0
SMALL
resp


@<TRIPOS>ATOM
      1 C1          1.3650    3.3350    6.0410 c3        1 MOL     -0.256291
      2 C2          0.9620    2.9390    4.5980 c         1 MOL      0.768707
      3 O1          1.8090    3.1130    3.7320 o         1 MOL     -0.625084
      4 H1          0.7830    2.7520    6.7540 hc        1 MOL      0.060037
      5 H2          2.4260    3.1360    6.1890 hc        1 MOL      0.060037
      6 H3          1.1680    4.3970    6.1940 hc        1 MOL      0.060037
      7 N1         -0.2820    2.6050    4.3160 n         1 MOL     -0.573136
      8 C3         -0.8770    2.4290    2.9910 c3        1 MOL      0.203748
      9 C4         -0.8600    3.7800    2.1940 c         1 MOL      0.459527
     10 O2         -1.3840    4.8000    2.6130 o         1 MOL     -0.555477
     11 C5         -2.2520    1.7330    3.2380 c3        1 MOL     -0.294404
     12 C6         -3.0210    1.4040    1.9180 c         1 MOL      0.719693
     13 O3         -4.1230    0.8040    2.1290 o         1 MOL     -0.678356
     14 O4         -2.5010    1.6460    0.7580 o         1 MOL     -0.678356
     15 H4         -0.9710    2.5660    5.0400 hn        1 MOL      0.295043
     16 H5         -0.2680    1.7330    2.4190 h1        1 MOL     -0.021202
     17 H6         -2.9530    2.3740    3.7740 hc        1 MOL      0.084604
     18 H7         -2.0870    0.8360    3.8420 hc        1 MOL      0.084604
     19 N2         -0.2200    3.7340    0.9880 n         1 MOL     -0.072756
     20 C7          0.3180    4.8960    0.2480 c3        1 MOL     -0.217934
     21 C8         -0.7300    5.4290   -0.8110 c         1 MOL      0.558536
     22 O5         -0.4270    6.3790   -1.5130 o         1 MOL     -0.566633
     23 C9          1.6840    4.5460   -0.2470 c3        1 MOL      0.029448
     24 C10         2.5970    5.7410   -0.4220 c3        1 MOL     -0.131013
     25 C11         4.0070    5.3110   -0.8620 c3        1 MOL     -0.141604
     26 C12         4.9680    6.5220   -0.7580 c3        1 MOL      0.097160
     27 N3          6.0960    6.3540   -1.6440 n4        1 MOL     -0.390578
     28 H8          0.1760    2.8350    0.7280 hn        1 MOL      0.135879
     29 H9          0.4750    5.6820    0.9860 h1        1 MOL      0.135695
     30 H10         1.6390    4.0700   -1.2270 hc        1 MOL      0.095003
     31 H11         2.1130    3.8040    0.4260 hc        1 MOL      0.095003
     32 H12         2.6450    6.3350    0.4870 hc        1 MOL      0.048674
     33 H13         2.1970    6.5100   -1.0840 hc        1 MOL      0.048674
     34 H14         3.9040    4.8770   -1.8550 hc        1 MOL      0.072083
     35 H15         4.4560    4.6100   -0.1480 hc        1 MOL      0.072083
     36 H16         5.2940    6.5890    0.2750 hx        1 MOL      0.091664
     37 H17         4.4500    7.4740   -0.9390 hx        1 MOL      0.091664
     38 H18         6.5220    5.4660   -1.4350 hn        1 MOL      0.331983
     39 H19         5.7640    6.2810   -2.6020 hn        1 MOL      0.331983
     40 H20         6.7920    7.0800   -1.5850 hn        1 MOL      0.331983
     41 N4         -1.9310    4.7940   -0.9830 n         1 MOL     -0.269442
     42 C13        -3.0930    5.2740   -1.6770 c3        1 MOL      0.031127
     43 C14        -4.4160    4.9310   -1.0300 c         1 MOL      0.451230
     44 O6         -5.4630    5.4940   -1.3670 o         1 MOL     -0.529306
     45 C15        -3.1240    4.6660   -3.0300 c3        1 MOL     -0.239853
     46 C16        -3.0200    3.1330   -3.0940 c         1 MOL      0.853416
     47 O7         -2.9440    2.4130   -2.0400 o         1 MOL     -0.737103
     48 O8         -2.9830    2.6000   -4.2200 o         1 MOL     -0.737103
     49 H21        -1.9630    3.9560   -0.4110 hn        1 MOL      0.026243
     50 H22        -3.1910    6.3630   -1.7440 h1        1 MOL      0.108166
     51 H23        -2.2240    4.9900   -3.5520 hc        1 MOL      0.060444
     52 H24        -3.9760    5.0060   -3.6190 hc        1 MOL      0.060444
     53 N5         -4.4150    3.9710   -0.0180 n         1 MOL     -0.220173
     54 C17        -5.5940    3.6150    0.8180 c3        1 MOL     -0.347174
     55 C18        -6.3240    2.2590    0.4600 c         1 MOL      0.630478
     56 O9         -7.2640    1.9510    1.0990 o         1 MOL     -0.573496
     57 H25        -3.6120    3.3600   -0.0600 hn        1 MOL      0.212283
     58 H26        -6.2500    4.4820    0.8090 h1        1 MOL      0.161722
     59 H27        -5.1870    3.4070    1.8060 h1        1 MOL      0.161722
     60 N6         -5.9290    1.5340   -0.5540 n         1 MOL     -0.308522
     61 C19        -6.6050    0.3370   -1.1180 c3        1 MOL     -0.090555
     62 C20        -6.8220   -0.9020   -0.1980 c         1 MOL      0.330027
     63 O10        -7.7060   -1.8070   -0.4680 o         1 MOL     -0.515107
     64 C21        -5.8690   -0.0090   -2.4670 c3        1 MOL      0.031257
     65 C22        -4.6990   -0.9460   -2.2150 c         1 MOL      0.337682
     66 N7         -4.7270   -2.0330   -2.9550 n         1 MOL     -0.483273
     67 O11        -3.7810   -0.7060   -1.3650 o         1 MOL     -0.659364
     68 H28        -5.1280    1.8320   -1.1060 hn        1 MOL      0.209532
     69 H29        -7.6350    0.6070   -1.3310 h1        1 MOL      0.119364
     70 H30        -5.5880    0.8900   -3.0230 hc        1 MOL      0.050481
     71 H31        -6.6940   -0.3520   -3.1000 hc        1 MOL      0.050481
     72 H32        -5.3500   -2.0900   -3.7400 hn        1 MOL      0.306901
     73 H33        -3.9900   -2.7020   -2.8110 hn        1 MOL      0.306901
     74 N8         -6.1630   -0.8990    0.9370 n         1 MOL      0.052496
     75 C23        -6.1830   -2.0050    1.9090 c3        1 MOL     -0.658360
     76 C24        -4.9320   -2.9490    1.9650 c         1 MOL      0.814773
     77 O12        -5.0090   -3.9800    2.6020 o         1 MOL     -0.547106
     78 H34        -5.5940   -0.0970    1.1650 hn        1 MOL      0.272962
     79 H35        -7.0280   -2.6440    1.6810 h1        1 MOL      0.229096
     80 H36        -6.2250   -1.5390    2.8970 h1        1 MOL      0.229096
     81 N9         -3.8170   -2.5160    1.3090 n         1 MOL     -0.758562
     82 C25        -2.6490   -3.3110    1.0400 c3        1 MOL      0.544223
     83 C26        -1.3250   -2.4610    0.9790 c         1 MOL      0.347838
     84 O13        -1.1960   -1.3080    0.6020 o         1 MOL     -0.613611
     85 C27        -2.9110   -4.1920   -0.2590 c3        1 MOL      0.053509
     86 C28        -4.1300   -5.0240   -0.3490 ca        1 MOL     -0.240053
     87 C29        -5.4290   -4.4810   -0.5660 ca        1 MOL      0.049912
     88 C30        -4.0680   -6.3770   -0.0660 ca        1 MOL      0.049912
     89 C31        -6.6050   -5.2440   -0.3640 ca        1 MOL     -0.435803
     90 C32        -5.2520   -7.2190   -0.0920 ca        1 MOL     -0.435803
     91 C33        -6.5260   -6.6010   -0.1720 ca        1 MOL      0.525242
     92 O14        -7.6240   -7.3310    0.1280 oh        1 MOL     -0.483603
     93 H37        -3.8780   -1.6480    0.8100 hn        1 MOL      0.382807
     94 H38        -2.5540   -4.0080    1.8810 h1        1 MOL     -0.059984
     95 H39        -1.9460   -4.6000   -0.5340 hc        1 MOL     -0.005840
     96 H40        -3.0360   -3.4600   -1.0570 hc        1 MOL     -0.005840
     97 H41        -5.4190   -3.4460   -0.8750 ha        1 MOL      0.059130
     98 H42        -3.0740   -6.7870    0.0220 ha        1 MOL      0.059130
     99 H43        -7.5350   -4.7160   -0.4950 ha        1 MOL      0.177750
    100 H44        -5.1860   -8.2670    0.1830 ha        1 MOL      0.177750
    101 H45        -7.4140   -8.2440    0.3040 ho        1 MOL      0.343627
    102 N10        -0.2870   -3.2280    1.1520 n         1 MOL     -0.463669
    103 C34         1.0430   -2.7270    1.1290 c3        1 MOL     -0.040714
    104 C35         1.9730   -3.6760    0.3310 c         1 MOL      0.598754
    105 O15         1.9540   -4.9040    0.5120 o         1 MOL     -0.543318
    106 C36         1.5010   -2.4280    2.6230 c3        1 MOL      0.021060
    107 C37         0.8000   -1.1410    3.1060 c3        1 MOL      0.101503
    108 C38         3.0020   -2.4610    2.8390 c3        1 MOL     -0.201553
    109 C39         1.2260   -0.5090    4.4340 c3        1 MOL     -0.058239
    110 H46        -0.4290   -4.2030    1.3530 hn        1 MOL      0.303082
    111 H47         1.1540   -1.7530    0.6530 h1        1 MOL      0.168260
    112 H48         1.0990   -3.2280    3.2500 hc        1 MOL      0.021479
    113 H49        -0.2640   -1.3160    3.2660 hc        1 MOL      0.029479
    114 H50         0.8090   -0.3720    2.3390 hc        1 MOL      0.029479
    115 H51         3.3960   -3.3490    2.3390 hc        1 MOL      0.035113
    116 H52         3.4780   -1.5360    2.5120 hc        1 MOL      0.035113
    117 H53         3.1000   -2.5340    3.9200 hc        1 MOL      0.035113
    118 H54         1.1600   -1.2470    5.2390 hc        1 MOL     -0.003258
    119 H55         2.2340   -0.0840    4.4160 hc        1 MOL     -0.003258
    120 H56         0.5610    0.2830    4.7660 hc        1 MOL     -0.003258
    121 N11         2.5800   -3.1880   -0.7390 n         1 MOL     -0.440767
    122 C40         3.7310   -3.9120   -1.3530 c3        1 MOL      0.135227
    123 C41         5.0910   -3.6950   -0.6510 c         1 MOL      0.391317
    124 O16         5.2030   -2.9470    0.3760 o         1 MOL     -0.340028
    125 C42         3.8240   -3.3250   -2.7410 c3        1 MOL     -0.235506
    126 O17         4.2850   -1.9930   -2.7710 oh        1 MOL     -0.431941
    127 H57         2.5160   -2.2390   -1.0700 hn        1 MOL      0.238922
    128 H58         3.5440   -4.9720   -1.4920 h1        1 MOL      0.070703
    129 H59         2.8380   -3.4490   -3.1870 h1        1 MOL      0.122657
    130 H60         4.6010   -3.8610   -3.2940 h1        1 MOL      0.122657
    131 H61         3.4670   -1.4960   -2.8780 ho        1 MOL      0.366169
    132 N12         6.1330   -4.4610   -1.1050 n         1 MOL     -0.446599
    133 C43         7.4910   -4.3930   -0.6210 c3        1 MOL      0.110406
    134 C44         8.0350   -2.9430   -0.5960 c         1 MOL      0.508027
    135 O18         8.6310   -2.4510    0.3210 o         1 MOL     -0.493702
    136 C45         8.2560   -5.4810   -1.3600 c3        1 MOL     -0.271921
    137 H62         5.9700   -5.0590   -1.9050 hn        1 MOL      0.298761
    138 H63         7.6300   -4.6690    0.4230 h1        1 MOL      0.077054
    139 H64         8.0330   -5.4800   -2.4360 hc        1 MOL      0.087991
    140 H65         9.3330   -5.4140   -1.2290 hc        1 MOL      0.087991
    141 H66         8.0140   -6.4780   -0.9830 hc        1 MOL      0.087991
    142 N13         7.7510   -2.2210   -1.6790 n         1 MOL     -0.512773
    143 C46         8.2700   -0.8410   -1.9200 c3        1 MOL      0.147987
    144 C47         7.5280    0.1710   -1.0160 c         1 MOL      0.298961
    145 O19         8.1990    1.0910   -0.5180 o         1 MOL     -0.493148
    146 C48         7.9300   -0.5030   -3.3820 c3        1 MOL     -0.326699
    147 H67         7.2160   -2.6860   -2.3970 hn        1 MOL      0.316421
    148 H68         9.3330   -0.7240   -1.7250 h1        1 MOL      0.118802
    149 H69         6.8970   -0.7140   -3.6290 hc        1 MOL      0.090053
    150 H70         8.2370    0.5350   -3.5580 hc        1 MOL      0.090053
    151 H71         8.5960   -1.0030   -4.0880 hc        1 MOL      0.090053
    152 N14         6.2080   -0.0100   -0.6540 n         1 MOL     -0.191840
    153 C49         5.4060    0.7710    0.3580 c3        1 MOL     -0.009594
    154 C50         5.9080    0.4830    1.8440 c         1 MOL      0.443769
    155 O20         6.0820    1.4180    2.5970 o         1 MOL     -0.544633
    156 C51         3.9220    0.4060    0.2670 c3        1 MOL      0.201203
    157 C52         3.1480    1.1330   -0.7900 c3        1 MOL     -0.096903
    158 C53         1.6610    0.7710   -0.8340 c         1 MOL      0.636929
    159 O21         0.8260    1.2930   -0.0270 o         1 MOL     -0.717876
    160 O22         1.1480   -0.1390   -1.5680 o         1 MOL     -0.717876
    161 H72         5.6900   -0.7030   -1.1620 hn        1 MOL      0.171860
    162 H73         5.6340    1.8220    0.1630 h1        1 MOL      0.043911
    163 H74         3.5290    0.7940    1.2140 hc        1 MOL      0.013806
    164 H75         3.8730   -0.6580    0.0220 hc        1 MOL      0.013806
    165 H76         3.5900    0.8260   -1.7360 hc        1 MOL     -0.060640
    166 H77         3.2690    2.1960   -0.6150 hc        1 MOL     -0.060640
    167 N15         6.2940   -0.7650    2.1180 n         1 MOL     -0.001495
    168 C54         7.0350   -1.1380    3.3960 c3        1 MOL     -0.367145
    169 H78         6.5110   -1.9540    3.8930 h1        1 MOL      0.133329
    170 H79         8.0490   -1.4550    3.1500 h1        1 MOL      0.133329
    171 H80         7.0730   -0.2740    4.0590 h1        1 MOL      0.133329
    172 H81         6.1040   -1.5540    1.5270 hn        1 MOL      0.092320
    173 Ca1        -1.4420    0.5360   -1.2920 Ca        1 MOL      1.860261
    174 O23        -2.1520    0.1100   -3.9150 oh        1 MOL     -0.840465
    175 H82        -2.6310    0.8720   -4.2560 ho        1 MOL      0.401842
    176 H83        -2.3570   -0.5900   -4.5270 ho        1 MOL      0.401842
    177 O24        -0.9370   -2.0280   -2.6180 oh        1 MOL     -0.840465
    178 H84        -0.8730   -2.9320   -2.2960 ho        1 MOL      0.401842
    179 H85        -0.1510   -1.9120   -3.1570 ho        1 MOL      0.401842
    180 O25        -0.0530    2.6970   -2.6490 oh        1 MOL     -0.840465
    181 H86        -0.0010    3.6430   -2.7310 ho        1 MOL      0.401842
    182 H87         0.1880    2.3640   -3.5140 ho        1 MOL      0.401842
@<TRIPOS>BOND
     1    1    2 1   
     2    1    4 1   
     3    1    5 1   
     4    1    6 1   
     5    2    3 2   
     6    2    7 1   
     7    7    8 1   
     8    7   15 1   
     9    8    9 1   
    10    8   11 1   
    11    8   16 1   
    12    9   10 2   
    13    9   19 1   
    14   11   12 1   
    15   11   17 1   
    16   11   18 1   
    17   12   13 1   
    18   12   14 1   
    19   19   20 1   
    20   19   28 1   
    21   20   21 1   
    22   20   23 1   
    23   20   29 1   
    24   21   22 2   
    25   21   41 1   
    26   23   24 1   
    27   23   30 1   
    28   23   31 1   
    29   24   25 1   
    30   24   32 1   
    31   24   33 1   
    32   25   26 1   
    33   25   34 1   
    34   25   35 1   
    35   26   27 1   
    36   26   36 1   
    37   26   37 1   
    38   27   38 1   
    39   27   39 1   
    40   27   40 1   
    41   41   42 1   
    42   41   49 1   
    43   42   43 1   
    44   42   45 1   
    45   42   50 1   
    46   43   44 2   
    47   43   53 1   
    48   45   46 1   
    49   45   51 1   
    50   45   52 1   
    51   46   47 1   
    52   46   48 1   
    53   53   54 1   
    54   53   57 1   
    55   54   55 1   
    56   54   58 1   
    57   54   59 1   
    58   55   56 2   
    59   55   60 1   
    60   60   61 1   
    61   60   68 1   
    62   61   62 1   
    63   61   64 1   
    64   61   69 1   
    65   62   63 2   
    66   62   74 1   
    67   64   65 1   
    68   64   70 1   
    69   64   71 1   
    70   65   66 1   
    71   65   67 2   
    72   66   72 1   
    73   66   73 1   
    74   74   75 1   
    75   74   78 1   
    76   75   76 1   
    77   75   79 1   
    78   75   80 1   
    79   76   77 2   
    80   76   81 1   
    81   81   82 1   
    82   81   93 1   
    83   82   83 1   
    84   82   85 1   
    85   82   94 1   
    86   83   84 2   
    87   83  102 1   
    88   85   86 1   
    89   85   95 1   
    90   85   96 1   
    91   86   87 ar  
    92   86   88 ar  
    93   87   89 ar  
    94   87   97 1   
    95   88   90 ar  
    96   88   98 1   
    97   89   91 ar  
    98   89   99 1   
    99   90   91 ar  
   100   90  100 1   
   101   91   92 1   
   102   92  101 1   
   103  102  103 1   
   104  102  110 1   
   105  103  104 1   
   106  103  106 1   
   107  103  111 1   
   108  104  105 2   
   109  104  121 1   
   110  106  107 1   
   111  106  108 1   
   112  106  112 1   
   113  107  109 1   
   114  107  113 1   
   115  107  114 1   
   116  108  115 1   
   117  108  116 1   
   118  108  117 1   
   119  109  118 1   
   120  109  119 1   
   121  109  120 1   
   122  121  122 1   
   123  121  127 1   
   124  122  123 1   
   125  122  125 1   
   126  122  128 1   
   127  123  124 2   
   128  123  132 1   
   129  125  126 1   
   130  125  129 1   
   131  125  130 1   
   132  126  131 1   
   133  132  133 1   
   134  132  137 1   
   135  133  134 1   
   136  133  136 1   
   137  133  138 1   
   138  134  135 2   
   139  134  142 1   
   140  136  139 1   
   141  136  140 1   
   142  136  141 1   
   143  142  143 1   
   144  142  147 1   
   145  143  144 1   
   146  143  146 1   
   147  143  148 1   
   148  144  145 2   
   149  144  152 1   
   150  146  149 1   
   151  146  150 1   
   152  146  151 1   
   153  152  153 1   
   154  152  161 1   
   155  153  154 1   
   156  153  156 1   
   157  153  162 1   
   158  154  155 2   
   159  154  167 1   
   160  156  157 1   
   161  156  163 1   
   162  156  164 1   
   163  157  158 1   
   164  157  165 1   
   165  157  166 1   
   166  158  159 1   
   167  158  160 1   
   168  167  168 1   
   169  167  172 1   
   170  168  169 1   
   171  168  170 1   
   172  168  171 1   
   173  174  175 1   
   174  174  176 1   
   175  177  178 1   
   176  177  179 1   
   177  180  181 1   
   178  180  182 1   
@<TRIPOS>SUBSTRUCTURE
     1 MOL         1 TEMP              0 ****  ****    0 ROOT
