@<TRIPOS>MOLECULE
MOL
  189   185     1     0     0
SMALL
resp


@<TRIPOS>ATOM
      1 C1         -1.7000   -0.6320    6.8520 c3        1 MOL     -0.347492
      2 C2         -1.7260    0.0140    5.4470 c         1 MOL      0.751727
      3 O1         -0.7320    0.5980    5.0880 o         1 MOL     -0.595918
      4 H1         -2.4480   -1.4240    6.9020 hc        1 MOL      0.083310
      5 H2         -0.7130   -1.0550    7.0410 hc        1 MOL      0.083310
      6 H3         -1.9220    0.1250    7.6050 hc        1 MOL      0.083310
      7 N1         -2.7590   -0.2640    4.6760 n         1 MOL     -0.586025
      8 C3         -2.8970    0.3040    3.2460 c3        1 MOL     -0.164490
      9 C4         -3.2100    1.7770    3.1400 c         1 MOL      0.712327
     10 O2         -4.1970    2.2150    3.7020 o         1 MOL     -0.534160
     11 C5         -3.9720   -0.4640    2.5310 c3        1 MOL     -0.043140
     12 C6         -4.3850    0.1330    1.1720 c         1 MOL      0.619005
     13 O3         -3.4650    0.5100    0.3970 o         1 MOL     -0.617526
     14 O4         -5.5850    0.2440    0.8340 o         1 MOL     -0.617526
     15 H4         -3.5570   -0.7860    5.0280 hn        1 MOL      0.350333
     16 H5         -1.9200    0.2480    2.7650 h1        1 MOL      0.118185
     17 H6         -4.8690   -0.5550    3.1580 hc        1 MOL      0.035652
     18 H7         -3.6250   -1.4740    2.3200 hc        1 MOL      0.035652
     19 N2         -2.3770    2.5880    2.3780 n         1 MOL     -0.326856
     20 C7         -2.3510    4.0600    2.3980 c3        1 MOL     -0.433133
     21 C8         -3.1950    4.6350    1.2810 c         1 MOL      0.726946
     22 O5         -3.6580    5.7530    1.3710 o         1 MOL     -0.598765
     23 C9         -0.8930    4.5910    2.2120 c3        1 MOL      0.415483
     24 C10        -0.7270    6.0660    2.3420 c3        1 MOL     -0.058598
     25 C11         0.8040    6.4030    2.5380 c3        1 MOL     -0.116585
     26 C12         1.8350    5.7500    1.6310 c3        1 MOL     -0.116571
     27 N3          1.6560    6.0860    0.2300 n4        1 MOL     -0.410577
     28 H8         -1.6350    2.1970    1.8230 hn        1 MOL      0.125706
     29 H9         -2.7170    4.3720    3.3730 h1        1 MOL      0.168074
     30 H10        -0.4940    4.2940    1.2450 hc        1 MOL     -0.024796
     31 H11        -0.2700    4.1620    3.0030 hc        1 MOL     -0.024796
     32 H12        -1.2520    6.4160    3.2250 hc        1 MOL      0.013464
     33 H13        -1.0530    6.5220    1.4130 hc        1 MOL      0.013464
     34 H14         1.0260    6.0560    3.5460 hc        1 MOL      0.084156
     35 H15         0.9140    7.4890    2.5610 hc        1 MOL      0.084156
     36 H16         1.9920    4.6910    1.8130 hx        1 MOL      0.123843
     37 H17         2.7930    6.2110    1.8910 hx        1 MOL      0.123843
     38 H18         2.5300    6.0010   -0.2550 hn        1 MOL      0.330952
     39 H19         0.9310    5.4990   -0.1610 hn        1 MOL      0.330952
     40 H20         1.4270    7.0640    0.1340 hn        1 MOL      0.330952
     41 N4         -3.3940    3.8700    0.1700 n         1 MOL     -0.531425
     42 C13        -3.8800    4.4030   -1.1060 c3        1 MOL     -0.006935
     43 C14        -5.0450    3.5760   -1.6570 c         1 MOL      0.476048
     44 O6         -5.4670    3.6450   -2.8020 o         1 MOL     -0.503427
     45 C15        -2.7050    4.6580   -2.0870 c3        1 MOL     -0.074014
     46 C16        -1.7400    3.5130   -2.2800 c         1 MOL      0.786209
     47 O7         -0.9320    3.6750   -3.1980 o         1 MOL     -0.780829
     48 O8         -1.8980    2.4870   -1.6990 o         1 MOL     -0.780829
     49 H21        -3.0880    2.9060    0.2040 hn        1 MOL      0.329167
     50 H22        -4.2410    5.4090   -0.8780 h1        1 MOL      0.091492
     51 H23        -2.2150    5.5880   -1.7880 hc        1 MOL      0.014926
     52 H24        -3.1830    4.9360   -3.0290 hc        1 MOL      0.014926
     53 N5         -5.6840    2.7070   -0.8280 n         1 MOL     -0.203734
     54 C17        -6.9810    2.2500   -0.9690 c3        1 MOL     -0.339949
     55 C18        -7.2120    1.1130   -1.9620 c         1 MOL      0.596537
     56 O9         -8.2280    1.0950   -2.6680 o         1 MOL     -0.581613
     57 H25        -5.3260    2.4850    0.0950 hn        1 MOL      0.255372
     58 H26        -7.5480    3.1270   -1.2650 h1        1 MOL      0.133582
     59 H27        -7.3780    1.8370   -0.0400 h1        1 MOL      0.133582
     60 N6         -6.2870    0.1340   -2.0200 n         1 MOL     -0.129467
     61 C19        -6.4610   -1.2210   -2.6390 c3        1 MOL     -0.002548
     62 C20        -6.7400   -2.3580   -1.6300 c         1 MOL      0.410520
     63 O10        -7.1040   -3.4750   -1.9880 o         1 MOL     -0.534485
     64 C21        -5.2170   -1.5300   -3.5340 c3        1 MOL     -0.159490
     65 C22        -3.9280   -1.1340   -2.7640 c         1 MOL      0.503019
     66 O11        -3.2980   -0.1190   -3.1070 o         1 MOL     -0.596866
     67 O12        -3.5580   -1.8550   -1.8210 o         1 MOL     -0.596866
     68 H28        -5.5700    0.2050   -1.3220 hn        1 MOL      0.016882
     69 H29        -7.3850   -1.0710   -3.2000 h1        1 MOL      0.089917
     70 H30        -5.3220   -0.9360   -4.4390 hc        1 MOL      0.068849
     71 H31        -5.2180   -2.5950   -3.7620 hc        1 MOL      0.068849
     72 N7         -6.4200   -2.0410   -0.3850 n         1 MOL     -0.248980
     73 C23        -6.3390   -3.0080    0.8110 c3        1 MOL     -0.035658
     74 C24        -5.1370   -4.0050    0.8100 c         1 MOL      0.430414
     75 O13        -5.2120   -4.9560    1.5860 o         1 MOL     -0.547043
     76 H32        -6.1990   -1.0720   -0.2250 hn        1 MOL      0.187094
     77 H33        -7.2840   -3.5200    0.9730 h1        1 MOL      0.071672
     78 H34        -6.2180   -2.4770    1.7540 h1        1 MOL      0.071672
     79 N8         -4.1320   -3.7120   -0.0230 n         1 MOL     -0.039604
     80 C25        -2.8570   -4.4460   -0.0820 c3        1 MOL     -0.210581
     81 C26        -1.6230   -3.6140    0.1420 c         1 MOL      0.693500
     82 O14        -1.6770   -2.3820    0.2320 o         1 MOL     -0.810442
     83 C27        -2.6270   -5.1020   -1.4320 c3        1 MOL      0.476559
     84 C28        -3.5700   -6.2950   -1.6410 c3        1 MOL     -0.279428
     85 O15        -2.8050   -4.1910   -2.4260 oh        1 MOL     -0.694741
     86 H35        -4.1600   -2.9160   -0.6340 hn        1 MOL      0.141784
     87 H36        -2.8920   -5.2070    0.6990 h1        1 MOL      0.075028
     88 H37        -1.6240   -5.5110   -1.5820 h1        1 MOL     -0.025206
     89 H38        -2.9310   -3.2910   -2.1090 ho        1 MOL      0.474881
     90 H39        -4.2730   -6.4340   -0.8200 hc        1 MOL      0.063801
     91 H40        -4.1700   -6.1700   -2.5460 hc        1 MOL      0.063801
     92 H41        -2.9890   -7.2150   -1.6950 hc        1 MOL      0.063801
     93 N9         -0.4840   -4.2750    0.4440 n         1 MOL     -0.551499
     94 C29         0.7680   -3.6100    0.8170 c3        1 MOL      0.244907
     95 C30         1.8020   -3.8790   -0.2350 c         1 MOL      0.339772
     96 O16         2.0870   -5.0120   -0.5650 o         1 MOL     -0.525409
     97 C31         1.1910   -4.0130    2.2360 c3        1 MOL      0.092596
     98 C32         0.5800   -3.1490    3.3020 c3        1 MOL     -0.083086
     99 C33         2.7210   -4.1140    2.3750 c3        1 MOL     -0.333445
    100 C34        -0.9140   -2.7820    3.2740 c3        1 MOL      0.161037
    101 H42        -0.5210   -5.2880    0.4670 hn        1 MOL      0.272882
    102 H43         0.6060   -2.5340    0.7780 h1        1 MOL      0.101731
    103 H44         0.8250   -5.0280    2.3770 hc        1 MOL      0.027249
    104 H45         1.1080   -2.1970    3.3850 hc        1 MOL      0.016931
    105 H46         0.7750   -3.6270    4.2590 hc        1 MOL      0.016931
    106 H47         3.1900   -4.8050    1.6810 hc        1 MOL      0.071177
    107 H48         3.2050   -3.1960    2.0580 hc        1 MOL      0.071177
    108 H49         2.9470   -4.4010    3.3960 hc        1 MOL      0.071177
    109 H50        -1.2660   -2.0700    2.5390 hc        1 MOL     -0.039862
    110 H51        -1.4690   -3.7240    3.2370 hc        1 MOL     -0.039862
    111 H52        -1.2360   -2.2500    4.1780 hc        1 MOL     -0.039862
    112 N10         2.4320   -2.8140   -0.7420 n         1 MOL     -0.134097
    113 C35         3.6560   -2.7200   -1.5360 c3        1 MOL      0.140463
    114 C36         4.9030   -2.5640   -0.6570 c         1 MOL      0.295326
    115 O17         4.8470   -2.2700    0.5210 o         1 MOL     -0.244659
    116 C37         3.5830   -1.4730   -2.4380 c3        1 MOL      0.101304
    117 C38         2.5670   -1.6400   -3.5500 c3        1 MOL     -0.365318
    118 O18         3.2320   -0.3140   -1.6420 oh        1 MOL     -0.530433
    119 H53         2.1560   -1.9090   -0.3760 hn        1 MOL      0.043960
    120 H54         3.9170   -3.5510   -2.1910 h1        1 MOL      0.037611
    121 H55         4.5510   -1.1630   -2.8370 h1        1 MOL      0.050998
    122 H56         2.3840   -0.3520   -1.2090 ho        1 MOL      0.308678
    123 H57         2.4830   -0.6960   -4.0790 hc        1 MOL      0.110953
    124 H58         2.9870   -2.3680   -4.2470 hc        1 MOL      0.110953
    125 H59         1.5630   -1.8730   -3.1780 hc        1 MOL      0.110953
    126 N11         6.0500   -2.6180   -1.3350 n         1 MOL     -0.342254
    127 C39         7.3790   -2.3350   -0.6930 c3        1 MOL     -0.086584
    128 C40         7.4390   -0.9270   -0.1660 c         1 MOL      0.539436
    129 O19         7.8600   -0.7560    0.9410 o         1 MOL     -0.508006
    130 C41         8.5430   -2.4880   -1.6190 c3        1 MOL      0.150257
    131 C42         8.7440   -3.9140   -2.1660 c3        1 MOL     -0.311195
    132 O20         8.4320   -1.6820   -2.7750 oh        1 MOL     -0.630183
    133 H60         5.9930   -2.7320   -2.3340 hn        1 MOL      0.298533
    134 H61         7.4900   -3.0570    0.1130 h1        1 MOL      0.147042
    135 H62         9.4450   -2.3050   -1.0340 h1        1 MOL      0.083269
    136 H63         9.2810   -1.7900   -3.2100 ho        1 MOL      0.427511
    137 H64         9.7090   -3.9680   -2.6740 hc        1 MOL      0.093851
    138 H65         8.8500   -4.6620   -1.3770 hc        1 MOL      0.093851
    139 H66         7.8990   -4.3620   -2.6950 hc        1 MOL      0.093851
    140 N12         6.8280    0.0500   -0.9140 n         1 MOL     -0.335622
    141 C43         6.7630    1.4590   -0.5140 c3        1 MOL     -0.072904
    142 C44         5.7990    1.7350    0.6630 c         1 MOL      0.458138
    143 O21         5.6900    2.8310    1.1400 o         1 MOL     -0.564637
    144 C45         6.3350    2.2610   -1.7190 c3        1 MOL     -0.020201
    145 C46         6.9530    3.6530   -1.7420 c3        1 MOL     -0.009046
    146 C47         6.5960    4.4440   -3.0630 c3        1 MOL     -0.189034
    147 C48         5.1220    4.5310   -3.3380 c3        1 MOL      0.213413
    148 N13         4.8890    5.2180   -4.6550 n4        1 MOL     -0.395230
    149 H67         6.4720   -0.0900   -1.8470 hn        1 MOL      0.263646
    150 H68         7.7670    1.8110   -0.3040 h1        1 MOL      0.114964
    151 H69         5.2510    2.2170   -1.8070 hc        1 MOL      0.036200
    152 H70         6.8260    1.7800   -2.5590 hc        1 MOL      0.036200
    153 H71         8.0420    3.5940   -1.6410 hc        1 MOL      0.044312
    154 H72         6.6270    4.1610   -0.8420 hc        1 MOL      0.044312
    155 H73         7.0490    3.9810   -3.9290 hc        1 MOL      0.066597
    156 H74         6.9060    5.4860   -3.0120 hc        1 MOL      0.066597
    157 H75         4.5960    5.1690   -2.6210 hx        1 MOL      0.045374
    158 H76         4.5890    3.5800   -3.3120 hx        1 MOL      0.045374
    159 H77         5.2350    6.1630   -4.7470 hn        1 MOL      0.331348
    160 H78         5.3250    4.7220   -5.4140 hn        1 MOL      0.331348
    161 H79         3.8910    5.3270   -4.7680 hn        1 MOL      0.331348
    162 N14         5.0580    0.7450    1.0690 n         1 MOL      0.002065
    163 C49         4.1940    0.7310    2.2630 c3        1 MOL     -0.172428
    164 C50         4.8870   -0.0440    3.4280 c         1 MOL      0.452020
    165 O22         4.6940    0.2960    4.6120 o         1 MOL     -0.519276
    166 C51         2.7550    0.2580    1.8700 c3        1 MOL     -0.033394
    167 C52         2.0750    1.3690    1.1060 c3        1 MOL     -0.004345
    168 C53         0.8370    0.6770    0.4550 c         1 MOL      0.466630
    169 O23         0.9590   -0.3230   -0.2880 o         1 MOL     -0.573081
    170 O24        -0.2470    1.2130    0.6790 o         1 MOL     -0.573081
    171 H80         5.0330   -0.0700    0.4740 hn        1 MOL     -0.055189
    172 H81         4.0010    1.7480    2.6030 h1        1 MOL      0.104939
    173 H82         2.1450    0.0740    2.7560 hc        1 MOL      0.105910
    174 H83         2.7500   -0.6750    1.2950 hc        1 MOL      0.105910
    175 H84         2.6640    1.7740    0.2730 hc        1 MOL     -0.003422
    176 H85         1.7140    2.1550    1.7730 hc        1 MOL     -0.003422
    177 N15         5.6530   -1.0930    3.0550 n         1 MOL     -0.147793
    178 C54         6.0540   -2.1670    3.9540 c3        1 MOL     -0.302719
    179 H86         5.1740   -2.5670    4.4560 h1        1 MOL      0.121405
    180 H87         6.5360   -2.9590    3.3820 h1        1 MOL      0.121405
    181 H88         6.7510   -1.7790    4.6970 h1        1 MOL      0.121405
    182 H89         5.7960   -1.2320    2.0600 hn        1 MOL      0.125932
    183 Ca1        -1.5810   -0.0810   -1.1690 Ca        1 MOL      1.743643
    184 O25        -0.9680   -2.2940   -2.7430 oh        1 MOL     -0.824550
    185 H90        -0.7760   -2.0890   -3.6600 ho        1 MOL      0.386327
    186 H91        -1.4470   -3.1210   -2.7700 ho        1 MOL      0.386327
    187 O26         0.1100    0.7220   -3.2010 oh        1 MOL     -0.824550
    188 H92         0.8570    0.9440   -3.7510 ho        1 MOL      0.386327
    189 H93        -0.3140    1.5610   -3.0220 ho        1 MOL      0.386327
@<TRIPOS>BOND
     1    1    2 1   
     2    1    4 1   
     3    1    5 1   
     4    1    6 1   
     5    2    3 2   
     6    2    7 1   
     7    7    8 1   
     8    7   15 1   
     9    8    9 1   
    10    8   11 1   
    11    8   16 1   
    12    9   10 2   
    13    9   19 1   
    14   11   12 1   
    15   11   17 1   
    16   11   18 1   
    17   12   13 1   
    18   12   14 1   
    19   19   20 1   
    20   19   28 1   
    21   20   21 1   
    22   20   23 1   
    23   20   29 1   
    24   21   22 2   
    25   21   41 1   
    26   23   24 1   
    27   23   30 1   
    28   23   31 1   
    29   24   25 1   
    30   24   32 1   
    31   24   33 1   
    32   25   26 1   
    33   25   34 1   
    34   25   35 1   
    35   26   27 1   
    36   26   36 1   
    37   26   37 1   
    38   27   38 1   
    39   27   39 1   
    40   27   40 1   
    41   41   42 1   
    42   41   49 1   
    43   42   43 1   
    44   42   45 1   
    45   42   50 1   
    46   43   44 2   
    47   43   53 1   
    48   45   46 1   
    49   45   51 1   
    50   45   52 1   
    51   46   47 1   
    52   46   48 1   
    53   53   54 1   
    54   53   57 1   
    55   54   55 1   
    56   54   58 1   
    57   54   59 1   
    58   55   56 2   
    59   55   60 1   
    60   60   61 1   
    61   60   68 1   
    62   61   62 1   
    63   61   64 1   
    64   61   69 1   
    65   62   63 2   
    66   62   72 1   
    67   64   65 1   
    68   64   70 1   
    69   64   71 1   
    70   65   66 1   
    71   65   67 1   
    72   72   73 1   
    73   72   76 1   
    74   73   74 1   
    75   73   77 1   
    76   73   78 1   
    77   74   75 2   
    78   74   79 1   
    79   79   80 1   
    80   79   86 1   
    81   80   81 1   
    82   80   83 1   
    83   80   87 1   
    84   81   82 2   
    85   81   93 1   
    86   83   84 1   
    87   83   85 1   
    88   83   88 1   
    89   84   90 1   
    90   84   91 1   
    91   84   92 1   
    92   85   89 1   
    93   93   94 1   
    94   93  101 1   
    95   94   95 1   
    96   94   97 1   
    97   94  102 1   
    98   95   96 2   
    99   95  112 1   
   100   97   98 1   
   101   97   99 1   
   102   97  103 1   
   103   98  100 1   
   104   98  104 1   
   105   98  105 1   
   106   99  106 1   
   107   99  107 1   
   108   99  108 1   
   109  100  109 1   
   110  100  110 1   
   111  100  111 1   
   112  112  113 1   
   113  112  119 1   
   114  113  114 1   
   115  113  116 1   
   116  113  120 1   
   117  114  115 2   
   118  114  126 1   
   119  116  117 1   
   120  116  118 1   
   121  116  121 1   
   122  117  123 1   
   123  117  124 1   
   124  117  125 1   
   125  118  122 1   
   126  126  127 1   
   127  126  133 1   
   128  127  128 1   
   129  127  130 1   
   130  127  134 1   
   131  128  129 2   
   132  128  140 1   
   133  130  131 1   
   134  130  132 1   
   135  130  135 1   
   136  131  137 1   
   137  131  138 1   
   138  131  139 1   
   139  132  136 1   
   140  140  141 1   
   141  140  149 1   
   142  141  142 1   
   143  141  144 1   
   144  141  150 1   
   145  142  143 2   
   146  142  162 1   
   147  144  145 1   
   148  144  151 1   
   149  144  152 1   
   150  145  146 1   
   151  145  153 1   
   152  145  154 1   
   153  146  147 1   
   154  146  155 1   
   155  146  156 1   
   156  147  148 1   
   157  147  157 1   
   158  147  158 1   
   159  148  159 1   
   160  148  160 1   
   161  148  161 1   
   162  162  163 1   
   163  162  171 1   
   164  163  164 1   
   165  163  166 1   
   166  163  172 1   
   167  164  165 2   
   168  164  177 1   
   169  166  167 1   
   170  166  173 1   
   171  166  174 1   
   172  167  168 1   
   173  167  175 1   
   174  167  176 1   
   175  168  169 1   
   176  168  170 1   
   177  177  178 1   
   178  177  182 1   
   179  178  179 1   
   180  178  180 1   
   181  178  181 1   
   182  184  185 1   
   183  184  186 1   
   184  187  188 1   
   185  187  189 1   
@<TRIPOS>SUBSTRUCTURE
     1 MOL         1 TEMP              0 ****  ****    0 ROOT
