@<TRIPOS>MOLECULE
MOL
  189   185     1     0     0
SMALL
resp


@<TRIPOS>ATOM
      1 C1         -0.3060   -1.7430    6.2560 c3        1 MOL     -0.546329
      2 C2          0.3540   -1.7620    4.8700 c         1 MOL      0.761316
      3 O1          0.6510   -0.6860    4.3470 o         1 MOL     -0.566720
      4 H1         -0.5980   -2.7550    6.5320 hc        1 MOL      0.143913
      5 H2          0.4020   -1.3570    6.9900 hc        1 MOL      0.143913
      6 H3         -1.1880   -1.1050    6.2300 hc        1 MOL      0.143913
      7 N1          0.8390   -2.9130    4.3340 n         1 MOL     -0.682088
      8 C3          1.7510   -2.9580    3.2680 c3        1 MOL      0.378369
      9 C4          1.7240   -4.2950    2.4910 c         1 MOL      0.380051
     10 O2          2.1970   -5.2980    3.0100 o         1 MOL     -0.560294
     11 C5          3.2010   -2.7340    3.7340 c3        1 MOL     -0.343795
     12 C6          4.0390   -2.4530    2.4990 c         1 MOL      0.862597
     13 O3          5.2380   -2.3860    2.6820 o         1 MOL     -0.712508
     14 O4          3.5380   -2.2710    1.3720 o         1 MOL     -0.712508
     15 H4          0.5920   -3.8020    4.7290 hn        1 MOL      0.326244
     16 H5          1.5340   -2.2010    2.5120 h1        1 MOL      0.028697
     17 H6          3.5870   -3.6830    4.1010 hc        1 MOL      0.068809
     18 H7          3.2510   -1.9350    4.4820 hc        1 MOL      0.068809
     19 N2          1.2470   -4.3180    1.2370 n         1 MOL     -0.125002
     20 C7          1.3220   -5.4210    0.2920 c3        1 MOL      0.060947
     21 C8          2.3940   -5.2950   -0.8640 c         1 MOL      0.404718
     22 O5          2.4300   -6.2130   -1.6360 o         1 MOL     -0.536133
     23 C9         -0.0280   -5.9210   -0.3690 c3        1 MOL      0.143397
     24 C10        -0.6390   -4.8810   -1.3350 c3        1 MOL      0.021622
     25 C11        -1.0850   -6.1160    0.8300 c3        1 MOL     -0.271728
     26 C12        -1.9220   -5.2640   -2.1630 c3        1 MOL     -0.312091
     27 H8          1.0090   -3.4420    0.7950 hn        1 MOL     -0.099938
     28 H9          1.6430   -6.2840    0.8870 h1        1 MOL      0.041519
     29 H10         0.1430   -6.9190   -0.7760 hc        1 MOL     -0.010242
     30 H11         0.1370   -4.8150   -2.0970 hc        1 MOL      0.051379
     31 H12        -0.7160   -3.9000   -0.8650 hc        1 MOL      0.051379
     32 H13        -0.7510   -6.8260    1.5840 hc        1 MOL      0.048054
     33 H14        -1.3330   -5.1830    1.3370 hc        1 MOL      0.048054
     34 H15        -2.0620   -6.4620    0.4810 hc        1 MOL      0.048054
     35 H16        -2.8170   -5.2040   -1.5400 hc        1 MOL      0.086894
     36 H17        -1.9780   -4.5860   -3.0100 hc        1 MOL      0.086894
     37 H18        -1.9010   -6.2720   -2.5660 hc        1 MOL      0.086894
     38 N3          3.2030   -4.1920   -0.9550 n         1 MOL     -0.234472
     39 C13         4.2040   -4.1450   -1.9940 c3        1 MOL     -0.092541
     40 C14         5.5750   -3.6350   -1.5840 c         1 MOL      0.409533
     41 O6          6.4260   -3.5010   -2.4990 o         1 MOL     -0.560240
     42 C15         3.6290   -3.4600   -3.2520 c3        1 MOL     -0.159907
     43 C16         3.0980   -2.0680   -2.9310 c         1 MOL      0.700132
     44 O7          3.6200   -1.4210   -1.9800 o         1 MOL     -0.670596
     45 O8          2.1230   -1.6670   -3.5540 o         1 MOL     -0.670596
     46 H19         3.2060   -3.4680   -0.2630 hn        1 MOL      0.203448
     47 H20         4.4390   -5.1690   -2.3000 h1        1 MOL      0.114212
     48 H21         2.9100   -4.0980   -3.7470 hc        1 MOL      0.062030
     49 H22         4.3550   -3.2660   -4.0460 hc        1 MOL      0.062030
     50 N4          5.8610   -3.0680   -0.4130 n         1 MOL     -0.249475
     51 C17         7.0960   -2.4590   -0.0540 c3        1 MOL     -0.099613
     52 C18         7.5460   -1.1590   -0.7520 c         1 MOL      0.407061
     53 O9          8.7430   -0.8090   -0.6250 o         1 MOL     -0.572430
     54 H23         5.1760   -3.1140    0.3310 hn        1 MOL      0.202629
     55 H24         7.9230   -3.1690   -0.1560 h1        1 MOL      0.087744
     56 H25         7.1090   -2.2610    1.0250 h1        1 MOL      0.087744
     57 N5          6.6500   -0.4370   -1.4610 n         1 MOL     -0.114036
     58 C19         7.0170    0.8600   -2.1550 c3        1 MOL     -0.068847
     59 C20         7.5630    2.0820   -1.3260 c         1 MOL      0.538498
     60 O10         8.5620    2.7530   -1.7220 o         1 MOL     -0.572325
     61 C21         5.8580    1.3880   -3.0940 c3        1 MOL     -0.186264
     62 C22         4.6050    1.7100   -2.3170 c         1 MOL      0.688614
     63 O11         4.4780    1.5600   -1.0920 o         1 MOL     -0.692168
     64 O12         3.7050    2.3190   -2.9260 o         1 MOL     -0.692168
     65 H26         5.7030   -0.7950   -1.5760 hn        1 MOL      0.192174
     66 H27         7.8120    0.5990   -2.8500 h1        1 MOL      0.070526
     67 H28         5.6450    0.6250   -3.8350 hc        1 MOL      0.071259
     68 H29         6.2640    2.2010   -3.6880 hc        1 MOL      0.071259
     69 N6          6.9340    2.3290   -0.1450 n         1 MOL     -0.372050
     70 C23         7.0430    3.5750    0.5400 c3        1 MOL      0.167372
     71 C24         5.7610    4.3100    0.9710 c         1 MOL      0.358260
     72 O13         5.8570    5.3250    1.6900 o         1 MOL     -0.598836
     73 H30         6.0780    1.8320    0.0790 hn        1 MOL      0.178633
     74 H31         7.6040    4.3380   -0.0170 h1        1 MOL      0.019169
     75 H32         7.6590    3.5330    1.4360 h1        1 MOL      0.019169
     76 N7          4.5800    3.8930    0.5830 n         1 MOL     -0.151475
     77 C25         3.3210    4.6030    0.8730 c3        1 MOL     -0.143415
     78 C26         2.1530    3.6040    1.2250 c         1 MOL      0.569936
     79 O14         2.1020    2.5490    0.6310 o         1 MOL     -0.512199
     80 C27         2.9000    5.4780   -0.3670 c3        1 MOL     -0.043265
     81 C28         3.7880    6.6450   -0.5860 c3        1 MOL      0.004544
     82 C29         3.1860    7.6170   -1.6010 c         1 MOL      0.546731
     83 N8          3.2400    7.3180   -2.9030 n         1 MOL     -0.804143
     84 O15         2.5710    8.5710   -1.1920 o         1 MOL     -0.565889
     85 H33         4.5580    3.1760   -0.1310 hn        1 MOL      0.226198
     86 H34         3.4250    5.2240    1.7680 h1        1 MOL      0.110829
     87 H35         1.8950    5.8860   -0.2780 hc        1 MOL      0.075176
     88 H36         2.8930    4.8830   -1.2830 hc        1 MOL      0.075176
     89 H37         4.7890    6.3640   -0.9290 hc        1 MOL      0.023942
     90 H38         3.9030    7.2650    0.2990 hc        1 MOL      0.023942
     91 H39         3.7010    6.5300   -3.3350 hn        1 MOL      0.370730
     92 H40         2.6090    7.9410   -3.3990 hn        1 MOL      0.370730
     93 N9          1.1130    3.9500    2.0030 n         1 MOL     -0.562707
     94 C30        -0.2450    3.3150    1.9520 c3        1 MOL      0.004467
     95 C31        -1.0380    3.5780    0.6150 c         1 MOL      0.463280
     96 O16        -1.4020    4.7230    0.2760 o         1 MOL     -0.562170
     97 C32        -1.0250    3.5330    3.3270 c3        1 MOL      0.185640
     98 C33        -2.4950    3.2480    3.1900 c3        1 MOL     -0.259164
     99 C34        -0.3370    2.7240    4.4660 c3        1 MOL     -0.259164
    100 H41         0.9940    4.9150    2.2820 hn        1 MOL      0.272079
    101 H42        -0.0370    2.2520    1.9460 h1        1 MOL      0.210996
    102 H43        -1.0480    4.5560    3.6960 hc        1 MOL     -0.008673
    103 H44        -2.9360    3.8440    2.3900 hc        1 MOL      0.056887
    104 H45        -2.6060    2.2030    2.9180 hc        1 MOL      0.056887
    105 H46        -2.9780    3.4250    4.1590 hc        1 MOL      0.056887
    106 H47         0.7240    2.7110    4.2410 hc        1 MOL      0.056887
    107 H48        -0.4290    3.1590    5.4650 hc        1 MOL      0.056887
    108 H49        -0.6990    1.6890    4.4630 hc        1 MOL      0.056887
    109 N10        -1.5440    2.4430    0.0760 n         1 MOL     -0.066409
    110 C35        -2.6280    2.4690   -0.9540 c3        1 MOL      0.027291
    111 C36        -3.9750    2.1070   -0.3530 c         1 MOL      0.243941
    112 O17        -4.0660    1.6980    0.7540 o         1 MOL     -0.144137
    113 C37        -2.2210    1.2950   -1.8460 c3        1 MOL     -0.059969
    114 C38        -2.8550    1.2560   -3.2590 c         1 MOL      0.598724
    115 N11        -2.6430    0.2080   -4.0700 n         1 MOL     -0.729662
    116 O18        -3.7100    2.0810   -3.5630 o         1 MOL     -0.602825
    117 H50        -1.2460    1.5180    0.3770 hn        1 MOL     -0.126313
    118 H51        -2.6550    3.4040   -1.5050 h1        1 MOL      0.068151
    119 H52        -2.4750    0.3890   -1.2990 hc        1 MOL      0.074492
    120 H53        -1.1570    1.2440   -2.0740 hc        1 MOL      0.074492
    121 H54        -2.0230   -0.5220   -3.7870 hn        1 MOL      0.366986
    122 H55        -3.3010    0.1040   -4.8320 hn        1 MOL      0.366986
    123 N12        -5.1110    2.2730   -1.0610 n         1 MOL     -0.352680
    124 C39        -6.4960    2.0150   -0.6240 c3        1 MOL     -0.001956
    125 C40        -6.6710    0.5010   -0.1550 c         1 MOL      0.652046
    126 O19        -7.1210    0.1480    0.9320 o         1 MOL     -0.553880
    127 C41        -7.5120    2.3910   -1.6790 c3        1 MOL     -0.080199
    128 C42        -8.9880    1.9870   -1.2580 ca        1 MOL     -0.081602
    129 C43        -9.6160    2.7280   -0.2500 ca        1 MOL     -0.118562
    130 C44        -9.5520    0.9270   -1.9400 ca        1 MOL     -0.118562
    131 C45       -11.0240    2.5480   -0.0540 ca        1 MOL     -0.179797
    132 C46       -10.8900    0.6980   -1.8110 ca        1 MOL     -0.179797
    133 C47       -11.6120    1.5140   -0.9000 ca        1 MOL      0.244762
    134 O20       -12.9520    1.3770   -0.7490 oh        1 MOL     -0.503808
    135 H56        -4.9870    2.6160   -2.0000 hn        1 MOL      0.254816
    136 H57        -6.5270    2.6960    0.2330 h1        1 MOL      0.069550
    137 H58        -7.1980    1.9460   -2.6140 hc        1 MOL      0.060612
    138 H59        -7.4930    3.4520   -1.9170 hc        1 MOL      0.060612
    139 H60        -9.1450    3.5860    0.2000 ha        1 MOL      0.128912
    140 H61        -8.9760    0.1990   -2.4920 ha        1 MOL      0.128912
    141 H62       -11.6020    3.2990    0.4530 ha        1 MOL      0.123812
    142 H63       -11.3790   -0.1150   -2.3260 ha        1 MOL      0.123812
    143 H64       -13.3730    0.8260   -1.4190 ho        1 MOL      0.366243
    144 N13        -6.0960   -0.4410   -0.9550 n         1 MOL     -0.434448
    145 C48        -6.0010   -1.8960   -0.5930 c3        1 MOL     -0.047322
    146 C49        -5.0610   -2.2900    0.5360 c         1 MOL      0.459226
    147 O21        -4.9440   -3.4520    0.9630 o         1 MOL     -0.521284
    148 C50        -5.6320   -2.6470   -1.9160 c3        1 MOL     -0.065592
    149 C51        -4.1790   -2.6240   -2.5320 c3        1 MOL     -0.064880
    150 C52        -4.1210   -3.3250   -3.9360 c         1 MOL      0.648034
    151 O22        -3.8110   -2.6460   -4.9810 o         1 MOL     -0.701704
    152 O23        -4.6590   -4.5180   -4.0230 o         1 MOL     -0.701704
    153 H65        -5.8680   -0.1650   -1.9020 hn        1 MOL      0.305895
    154 H66        -6.9780   -2.2840   -0.2890 h1        1 MOL      0.090264
    155 H67        -6.2950   -2.2950   -2.7090 hc        1 MOL      0.027542
    156 H68        -5.7900   -3.6820   -1.6420 hc        1 MOL      0.027542
    157 H69        -3.4500   -3.0740   -1.8490 hc        1 MOL     -0.021048
    158 H70        -3.9710   -1.5500   -2.5860 hc        1 MOL     -0.021048
    159 N14        -4.3870   -1.2580    1.0680 n         1 MOL     -0.078255
    160 C53        -3.5320   -1.4360    2.2570 c3        1 MOL     -0.078652
    161 C54        -4.1530   -0.6610    3.4800 c         1 MOL      0.460386
    162 O24        -4.2020   -1.0550    4.6110 o         1 MOL     -0.590810
    163 C55        -2.1680   -0.9100    1.8710 c3        1 MOL     -0.051683
    164 C56        -1.5140   -1.7810    0.8180 c3        1 MOL     -0.097380
    165 C57        -0.1530   -1.1210    0.4720 c         1 MOL      0.669036
    166 O25         0.7930   -1.8470    0.0920 o         1 MOL     -0.640856
    167 O26         0.0100    0.1090    0.5040 o         1 MOL     -0.640856
    168 H71        -4.5690   -0.3350    0.7050 hn        1 MOL     -0.032252
    169 H72        -3.6080   -2.4750    2.5680 h1        1 MOL      0.087545
    170 H73        -1.5290   -0.8590    2.7550 hc        1 MOL      0.053732
    171 H74        -2.2750    0.1420    1.6020 hc        1 MOL      0.053732
    172 H75        -2.0520   -1.6750   -0.1240 hc        1 MOL      0.078697
    173 H76        -1.4500   -2.8180    1.1450 hc        1 MOL      0.078697
    174 N15        -4.7410    0.4880    3.2860 n         1 MOL     -0.026268
    175 C58        -5.5070    1.3810    4.1950 c3        1 MOL     -0.025437
    176 H77        -5.8910    0.8010    5.0340 h1        1 MOL      0.031892
    177 H78        -4.8520    2.1680    4.5680 h1        1 MOL      0.031892
    178 H79        -6.3380    1.8280    3.6510 h1        1 MOL      0.031892
    179 H80        -4.5980    0.8620    2.3550 hn        1 MOL     -0.051505
    180 Ca1         2.6460   -0.0830   -0.0210 Ca        1 MOL      1.718168
    181 O27         2.4750    0.4220    2.6060 oh        1 MOL     -0.851608
    182 H81         3.1400    0.8590    3.1410 ho        1 MOL      0.390533
    183 H82         1.9250   -0.0480    3.2360 ho        1 MOL      0.390533
    184 O28         5.0580    0.0790    1.3750 oh        1 MOL     -0.851608
    185 H83         5.2470   -0.8170    1.6590 ho        1 MOL      0.390533
    186 H84         5.1950    0.6080    2.1650 ho        1 MOL      0.390533
    187 O29         1.6730    0.7580   -2.3960 oh        1 MOL     -0.851608
    188 H85         1.9700    0.0060   -2.9050 ho        1 MOL      0.390533
    189 H86         2.2930    1.4530   -2.5990 ho        1 MOL      0.390533
@<TRIPOS>BOND
     1    1    2 1   
     2    1    4 1   
     3    1    5 1   
     4    1    6 1   
     5    2    3 2   
     6    2    7 1   
     7    7    8 1   
     8    7   15 1   
     9    8    9 1   
    10    8   11 1   
    11    8   16 1   
    12    9   10 2   
    13    9   19 1   
    14   11   12 1   
    15   11   17 1   
    16   11   18 1   
    17   12   13 1   
    18   12   14 1   
    19   19   20 1   
    20   19   27 1   
    21   20   21 1   
    22   20   23 1   
    23   20   28 1   
    24   21   22 2   
    25   21   38 1   
    26   23   24 1   
    27   23   25 1   
    28   23   29 1   
    29   24   26 1   
    30   24   30 1   
    31   24   31 1   
    32   25   32 1   
    33   25   33 1   
    34   25   34 1   
    35   26   35 1   
    36   26   36 1   
    37   26   37 1   
    38   38   39 1   
    39   38   46 1   
    40   39   40 1   
    41   39   42 1   
    42   39   47 1   
    43   40   41 2   
    44   40   50 1   
    45   42   43 1   
    46   42   48 1   
    47   42   49 1   
    48   43   44 1   
    49   43   45 1   
    50   50   51 1   
    51   50   54 1   
    52   51   52 1   
    53   51   55 1   
    54   51   56 1   
    55   52   53 2   
    56   52   57 1   
    57   57   58 1   
    58   57   65 1   
    59   58   59 1   
    60   58   61 1   
    61   58   66 1   
    62   59   60 2   
    63   59   69 1   
    64   61   62 1   
    65   61   67 1   
    66   61   68 1   
    67   62   63 1   
    68   62   64 1   
    69   69   70 1   
    70   69   73 1   
    71   70   71 1   
    72   70   74 1   
    73   70   75 1   
    74   71   72 2   
    75   71   76 1   
    76   76   77 1   
    77   76   85 1   
    78   77   78 1   
    79   77   80 1   
    80   77   86 1   
    81   78   79 2   
    82   78   93 1   
    83   80   81 1   
    84   80   87 1   
    85   80   88 1   
    86   81   82 1   
    87   81   89 1   
    88   81   90 1   
    89   82   83 1   
    90   82   84 2   
    91   83   91 1   
    92   83   92 1   
    93   93   94 1   
    94   93  100 1   
    95   94   95 1   
    96   94   97 1   
    97   94  101 1   
    98   95   96 2   
    99   95  109 1   
   100   97   98 1   
   101   97   99 1   
   102   97  102 1   
   103   98  103 1   
   104   98  104 1   
   105   98  105 1   
   106   99  106 1   
   107   99  107 1   
   108   99  108 1   
   109  109  110 1   
   110  109  117 1   
   111  110  111 1   
   112  110  113 1   
   113  110  118 1   
   114  111  112 2   
   115  111  123 1   
   116  113  114 1   
   117  113  119 1   
   118  113  120 1   
   119  114  115 1   
   120  114  116 2   
   121  115  121 1   
   122  115  122 1   
   123  123  124 1   
   124  123  135 1   
   125  124  125 1   
   126  124  127 1   
   127  124  136 1   
   128  125  126 2   
   129  125  144 1   
   130  127  128 1   
   131  127  137 1   
   132  127  138 1   
   133  128  129 ar  
   134  128  130 ar  
   135  129  131 ar  
   136  129  139 1   
   137  130  132 ar  
   138  130  140 1   
   139  131  133 ar  
   140  131  141 1   
   141  132  133 ar  
   142  132  142 1   
   143  133  134 1   
   144  134  143 1   
   145  144  145 1   
   146  144  153 1   
   147  145  146 1   
   148  145  148 1   
   149  145  154 1   
   150  146  147 2   
   151  146  159 1   
   152  148  149 1   
   153  148  155 1   
   154  148  156 1   
   155  149  150 1   
   156  149  157 1   
   157  149  158 1   
   158  150  151 1   
   159  150  152 1   
   160  159  160 1   
   161  159  168 1   
   162  160  161 1   
   163  160  163 1   
   164  160  169 1   
   165  161  162 2   
   166  161  174 1   
   167  163  164 1   
   168  163  170 1   
   169  163  171 1   
   170  164  165 1   
   171  164  172 1   
   172  164  173 1   
   173  165  166 1   
   174  165  167 1   
   175  174  175 1   
   176  174  179 1   
   177  175  176 1   
   178  175  177 1   
   179  175  178 1   
   180  181  182 1   
   181  181  183 1   
   182  184  185 1   
   183  184  186 1   
   184  187  188 1   
   185  187  189 1   
@<TRIPOS>SUBSTRUCTURE
     1 MOL         1 TEMP              0 ****  ****    0 ROOT
