@<TRIPOS>MOLECULE
MOL
  175   173     1     0     0
SMALL
resp


@<TRIPOS>ATOM
      1 C1          0.2470   -3.3270    5.9180 c3        1 MOL     -0.420884
      2 C2          0.6550   -3.0050    4.5220 c         1 MOL      0.744618
      3 O1          0.0110   -3.6090    3.6270 o         1 MOL     -0.583673
      4 H1         -0.1520   -2.4310    6.3950 hc        1 MOL      0.102275
      5 H2         -0.5190   -4.1020    5.9040 hc        1 MOL      0.102275
      6 H3          1.1130   -3.6810    6.4770 hc        1 MOL      0.102275
      7 N1          1.7330   -2.2410    4.2940 n         1 MOL     -0.574518
      8 C3          2.2330   -1.9860    2.9090 c3        1 MOL      0.034282
      9 C4          2.8340   -3.2490    2.1660 c         1 MOL      0.614080
     10 O2          3.7920   -3.8230    2.6700 o         1 MOL     -0.617874
     11 C5          3.1970   -0.7710    2.8120 c3        1 MOL     -0.201849
     12 C6          3.7600   -0.5580    1.4450 c         1 MOL      0.852807
     13 O3          4.9170   -0.1080    1.3500 o         1 MOL     -0.805170
     14 O4          3.1450   -0.7990    0.3850 o         1 MOL     -0.805170
     15 H4          2.3210   -1.9040    5.0430 hn        1 MOL      0.313990
     16 H5          1.3150   -1.7350    2.3860 h1        1 MOL      0.056814
     17 H6          4.0030   -0.9330    3.5320 hc        1 MOL      0.054677
     18 H7          2.7570    0.1560    3.1890 hc        1 MOL      0.054677
     19 N2          2.1960   -3.7700    1.1820 n         1 MOL     -0.277854
     20 C7          2.4150   -5.0890    0.5870 c3        1 MOL      0.146270
     21 C8          3.4940   -5.1550   -0.4650 c         1 MOL      0.323319
     22 O5          4.2230   -6.1490   -0.5580 o         1 MOL     -0.558540
     23 C9          1.0570   -5.5870   -0.1400 c3        1 MOL     -0.495038
     24 H8          1.4200   -3.1920    0.8660 hn        1 MOL      0.235525
     25 H9          2.6960   -5.6930    1.4490 h1        1 MOL      0.063928
     26 H10         0.2730   -5.4860    0.6120 hc        1 MOL      0.139103
     27 H11         0.7100   -4.9190   -0.9170 hc        1 MOL      0.139103
     28 H12         1.2350   -6.5730   -0.5710 hc        1 MOL      0.139103
     29 N3          3.6570   -4.1570   -1.3010 n         1 MOL     -0.015212
     30 C10         4.6910   -4.1300   -2.2970 c3        1 MOL     -0.250227
     31 C11         6.0130   -3.5650   -1.7740 c         1 MOL      0.524311
     32 O6          7.0820   -3.6470   -2.3500 o         1 MOL     -0.557928
     33 C12         4.2260   -3.4690   -3.5720 c3        1 MOL      0.077257
     34 C13         3.5590   -2.0970   -3.6320 c         1 MOL      0.636387
     35 O7          3.6800   -1.3880   -4.6810 o         1 MOL     -0.710641
     36 O8          2.8770   -1.6100   -2.6750 o         1 MOL     -0.710641
     37 H13         2.9900   -3.3930   -1.3280 hn        1 MOL      0.144611
     38 H14         4.9640   -5.1520   -2.5690 h1        1 MOL      0.129505
     39 H15         3.5490   -4.1610   -4.0660 hc        1 MOL     -0.001380
     40 H16         5.0100   -3.4770   -4.3310 hc        1 MOL     -0.001380
     41 N4          5.9580   -2.9290   -0.6110 n         1 MOL     -0.205619
     42 C14         7.1310   -2.3230    0.1170 c3        1 MOL     -0.307635
     43 C15         7.5980   -0.9710   -0.4900 c         1 MOL      0.630287
     44 O9          8.8030   -0.7870   -0.5330 o         1 MOL     -0.574863
     45 H17         5.0540   -2.5980   -0.3300 hn        1 MOL      0.179322
     46 H18         7.9160   -3.0730    0.0270 h1        1 MOL      0.141223
     47 H19         6.7990   -2.2940    1.1640 h1        1 MOL      0.141223
     48 N5          6.6700   -0.1010   -0.9900 n         1 MOL     -0.349794
     49 C16         6.9400    1.2400   -1.5470 c3        1 MOL     -0.026080
     50 C17         6.9620    2.2890   -0.5040 c         1 MOL      0.436018
     51 O10         7.5650    3.3370   -0.7060 o         1 MOL     -0.588897
     52 C18         6.0400    1.5570   -2.7150 c3        1 MOL     -0.004539
     53 C19         4.7650    2.1200   -2.1580 c         1 MOL      0.386040
     54 N6          4.5030    3.4150   -2.1670 n         1 MOL     -0.670809
     55 O11         3.9930    1.3480   -1.5640 o         1 MOL     -0.425672
     56 H20         5.7060   -0.3870   -1.0120 hn        1 MOL      0.229056
     57 H21         7.9280    1.1910   -2.0150 h1        1 MOL      0.099988
     58 H22         6.0470    0.7070   -3.3920 hc        1 MOL      0.045924
     59 H23         6.5660    2.3330   -3.2640 hc        1 MOL      0.045924
     60 H24         5.1670    4.0350   -2.6080 hn        1 MOL      0.355500
     61 H25         3.6070    3.7160   -1.7910 hn        1 MOL      0.355500
     62 N7          6.2730    2.1880    0.6180 n         1 MOL     -0.161361
     63 C20         6.3690    3.1300    1.7860 c3        1 MOL     -0.215319
     64 C21         5.0710    3.8900    2.1420 c         1 MOL      0.513611
     65 O12         5.0140    4.7720    2.9930 o         1 MOL     -0.578566
     66 H26         5.6250    1.4180    0.5830 hn        1 MOL      0.281180
     67 H27         7.2320    3.7840    1.6450 h1        1 MOL      0.119950
     68 H28         6.5760    2.4840    2.6370 h1        1 MOL      0.119950
     69 N8          4.0100    3.6720    1.3530 n         1 MOL     -0.115890
     70 C22         2.7030    4.3170    1.5380 c3        1 MOL     -0.172485
     71 C23         1.5810    3.3580    1.2460 c         1 MOL      0.492332
     72 O13         1.7830    2.4340    0.4250 o         1 MOL     -0.553614
     73 C24         2.4170    5.5500    0.5380 c3        1 MOL      0.412746
     74 C25         3.3030    6.8190    0.7170 c3        1 MOL     -0.413492
     75 O14         2.6020    5.2760   -0.8390 oh        1 MOL     -0.630219
     76 H29         4.1170    2.9630    0.6440 hn        1 MOL      0.107067
     77 H30         2.6200    4.7920    2.5160 h1        1 MOL      0.098818
     78 H31         1.3920    5.8940    0.6830 h1        1 MOL     -0.018162
     79 H32         2.0030    4.6230   -1.2030 ho        1 MOL      0.405115
     80 H33         2.8370    7.6420    0.1810 hc        1 MOL      0.109763
     81 H34         3.3710    7.0820    1.7790 hc        1 MOL      0.109763
     82 H35         4.3160    6.6330    0.3610 hc        1 MOL      0.109763
     83 N9          0.4070    3.6100    1.8190 n         1 MOL     -0.338501
     84 C26        -0.8480    2.8120    1.6120 c3        1 MOL      0.103326
     85 C27        -1.6090    3.1870    0.3650 c         1 MOL      0.496136
     86 O15        -1.8930    4.3380    0.0440 o         1 MOL     -0.571008
     87 C28        -1.6300    2.8700    2.9220 c3        1 MOL     -0.091826
     88 C29        -1.2690    1.7420    3.9550 c3        1 MOL      0.212336
     89 C30        -3.1880    2.7440    2.8310 c3        1 MOL     -0.145960
     90 C31         0.1640    1.8600    4.4340 c3        1 MOL     -0.164691
     91 H36         0.3700    4.4770    2.3310 hn        1 MOL      0.233291
     92 H37        -0.5260    1.7740    1.5510 h1        1 MOL      0.090630
     93 H38        -1.4770    3.8160    3.4300 hc        1 MOL      0.038440
     94 H39        -1.4660    0.7320    3.5840 hc        1 MOL     -0.022490
     95 H40        -1.8090    1.7720    4.9010 hc        1 MOL     -0.022490
     96 H41        -3.6410    2.9640    3.8040 hc        1 MOL      0.018081
     97 H42        -3.5560    3.5100    2.1450 hc        1 MOL      0.018081
     98 H43        -3.4180    1.7390    2.4810 hc        1 MOL      0.018081
     99 H44         0.2210    1.4320    5.4410 hc        1 MOL      0.013770
    100 H45         0.7660    1.2240    3.7830 hc        1 MOL      0.013770
    101 H46         0.5840    2.8560    4.2960 hc        1 MOL      0.013770
    102 N10        -2.0110    2.0870   -0.2650 n         1 MOL     -0.127688
    103 C32        -3.0910    2.0660   -1.2850 c3        1 MOL      0.151974
    104 C33        -4.4470    1.4600   -0.8030 c         1 MOL      0.185105
    105 O16        -4.5460    0.6970    0.1630 o         1 MOL     -0.015379
    106 C34        -2.6090    1.1500   -2.3640 c3        1 MOL     -0.155940
    107 C35        -1.2650    1.3110   -3.0070 c         1 MOL      0.745425
    108 O17        -1.0190    2.3880   -3.5860 o         1 MOL     -0.705129
    109 O18        -0.4520    0.3760   -2.8740 o         1 MOL     -0.705129
    110 H47        -1.8250    1.1810    0.1380 hn        1 MOL     -0.070601
    111 H48        -3.1960    3.0540   -1.7320 h1        1 MOL      0.050429
    112 H49        -3.3150    1.2700   -3.1960 hc        1 MOL      0.025862
    113 H50        -2.7350    0.1310   -2.0060 hc        1 MOL      0.025862
    114 N11        -5.5340    1.6300   -1.5680 n         1 MOL     -0.546681
    115 C36        -6.9240    1.1880   -1.2390 c3        1 MOL      0.375837
    116 C37        -7.1130   -0.2150   -0.6900 c         1 MOL      0.320488
    117 O19        -7.5970   -0.4050    0.4220 o         1 MOL     -0.497247
    118 C38        -8.0260    1.6220   -2.2670 c3        1 MOL     -0.153819
    119 C39        -9.4640    1.2920   -1.8920 ca        1 MOL      0.052725
    120 C40       -10.0720    1.7760   -0.7260 ca        1 MOL     -0.134699
    121 C41       -10.1880    0.4290   -2.6950 ca        1 MOL     -0.134699
    122 C42       -11.4480    1.4310   -0.3820 ca        1 MOL     -0.137120
    123 C43       -11.5090    0.1100   -2.3840 ca        1 MOL     -0.137120
    124 C44       -12.1490    0.5760   -1.2440 ca        1 MOL     -0.069716
    125 H51        -5.4410    2.1800   -2.4130 hn        1 MOL      0.305253
    126 H52        -7.0840    1.8240   -0.3690 h1        1 MOL      0.024288
    127 H53        -7.8900    1.1670   -3.2410 hc        1 MOL      0.045138
    128 H54        -7.9060    2.6980   -2.4250 hc        1 MOL      0.045138
    129 H55        -9.5110    2.5030   -0.1590 ha        1 MOL      0.109221
    130 H56        -9.7840   -0.0060   -3.5940 ha        1 MOL      0.109221
    131 H57       -11.8650    1.8320    0.5250 ha        1 MOL      0.117193
    132 H58       -12.0020   -0.6070   -3.0330 ha        1 MOL      0.117193
    133 H59       -13.1630    0.2250   -1.1000 ha        1 MOL      0.092700
    134 N12        -6.5670   -1.2630   -1.3150 n         1 MOL     -0.067001
    135 C45        -6.5210   -2.6460   -0.7980 c3        1 MOL     -0.008989
    136 C46        -5.9010   -2.8820    0.6040 c         1 MOL      0.326570
    137 O20        -6.2270   -3.7540    1.3210 o         1 MOL     -0.489379
    138 C47        -5.8120   -3.3620   -1.9130 c3        1 MOL      0.010914
    139 C48        -6.0710   -2.5600   -3.2050 c3        1 MOL     -0.081573
    140 C49        -5.8780   -1.1750   -2.5280 c3        1 MOL     -0.137884
    141 H60        -7.5240   -3.0680   -0.7860 h1        1 MOL      0.071531
    142 H61        -4.7270   -3.3580   -1.8340 hc        1 MOL      0.034590
    143 H62        -6.1100   -4.4100   -2.0020 hc        1 MOL      0.034590
    144 H63        -5.3870   -2.8000   -4.0190 hc        1 MOL      0.037555
    145 H64        -7.1220   -2.6270   -3.4760 hc        1 MOL      0.037555
    146 H65        -4.8160   -1.0430   -2.2940 h1        1 MOL      0.082000
    147 H66        -6.1930   -0.3880   -3.2110 h1        1 MOL      0.082000
    148 N13        -4.9550   -2.0080    0.9450 n         1 MOL      0.000913
    149 C50        -3.9650   -2.0370    2.0250 c3        1 MOL     -0.117512
    150 C51        -4.5980   -1.1880    3.1670 c         1 MOL      0.383710
    151 O21        -4.5890   -1.6250    4.3280 o         1 MOL     -0.558268
    152 C52        -2.5540   -1.4900    1.6460 c3        1 MOL     -0.043809
    153 C53        -1.8890   -2.2450    0.5080 c3        1 MOL     -0.101000
    154 C54        -0.6150   -1.5810   -0.0240 c         1 MOL      0.776075
    155 O22        -0.4150   -0.3730    0.1880 o         1 MOL     -0.779385
    156 O23         0.2800   -2.2290   -0.6810 o         1 MOL     -0.779385
    157 H67        -4.7290   -1.2880    0.2810 hn        1 MOL     -0.024643
    158 H68        -3.9020   -3.0750    2.3280 h1        1 MOL      0.118153
    159 H69        -1.8810   -1.4670    2.4990 hc        1 MOL      0.069177
    160 H70        -2.6300   -0.4420    1.3580 hc        1 MOL      0.069177
    161 H71        -2.5350   -2.2310   -0.3700 hc        1 MOL      0.039532
    162 H72        -1.7370   -3.3000    0.7110 hc        1 MOL      0.039532
    163 N14        -5.2550   -0.1170    2.7750 n         1 MOL      0.080708
    164 C55        -6.1880    0.6250    3.6650 c3        1 MOL     -0.311061
    165 H73        -6.0050    1.6960    3.5710 h1        1 MOL      0.104445
    166 H74        -7.2170    0.4060    3.3770 h1        1 MOL      0.104445
    167 H75        -6.0260    0.3190    4.6990 h1        1 MOL      0.104445
    168 H76        -5.2840    0.1730    1.8100 hn        1 MOL     -0.032887
    169 Ca1         1.5720    0.1600   -1.2920 Ca        1 MOL      1.730140
    170 O24         1.1810    3.2020   -2.2690 oh        1 MOL     -0.834705
    171 H77         1.6330    3.3430   -3.1000 ho        1 MOL      0.396835
    172 H78         0.2880    2.9570   -2.5280 ho        1 MOL      0.396835
    173 O25         2.4870    1.0220   -3.9140 oh        1 MOL     -0.834705
    174 H79         1.7430    0.7560   -4.4580 ho        1 MOL      0.396835
    175 H80         3.1240    0.3240   -4.0250 ho        1 MOL      0.396835
@<TRIPOS>BOND
     1    1    2 1   
     2    1    4 1   
     3    1    5 1   
     4    1    6 1   
     5    2    3 2   
     6    2    7 1   
     7    7    8 1   
     8    7   15 1   
     9    8    9 1   
    10    8   11 1   
    11    8   16 1   
    12    9   10 2   
    13    9   19 1   
    14   11   12 1   
    15   11   17 1   
    16   11   18 1   
    17   12   13 1   
    18   12   14 1   
    19   19   20 1   
    20   19   24 1   
    21   20   21 1   
    22   20   23 1   
    23   20   25 1   
    24   21   22 2   
    25   21   29 1   
    26   23   26 1   
    27   23   27 1   
    28   23   28 1   
    29   29   30 1   
    30   29   37 1   
    31   30   31 1   
    32   30   33 1   
    33   30   38 1   
    34   31   32 2   
    35   31   41 1   
    36   33   34 1   
    37   33   39 1   
    38   33   40 1   
    39   34   35 1   
    40   34   36 1   
    41   41   42 1   
    42   41   45 1   
    43   42   43 1   
    44   42   46 1   
    45   42   47 1   
    46   43   44 2   
    47   43   48 1   
    48   48   49 1   
    49   48   56 1   
    50   49   50 1   
    51   49   52 1   
    52   49   57 1   
    53   50   51 2   
    54   50   62 1   
    55   52   53 1   
    56   52   58 1   
    57   52   59 1   
    58   53   54 1   
    59   53   55 2   
    60   54   60 1   
    61   54   61 1   
    62   62   63 1   
    63   62   66 1   
    64   63   64 1   
    65   63   67 1   
    66   63   68 1   
    67   64   65 2   
    68   64   69 1   
    69   69   70 1   
    70   69   76 1   
    71   70   71 1   
    72   70   73 1   
    73   70   77 1   
    74   71   72 2   
    75   71   83 1   
    76   73   74 1   
    77   73   75 1   
    78   73   78 1   
    79   74   80 1   
    80   74   81 1   
    81   74   82 1   
    82   75   79 1   
    83   83   84 1   
    84   83   91 1   
    85   84   85 1   
    86   84   87 1   
    87   84   92 1   
    88   85   86 2   
    89   85  102 1   
    90   87   88 1   
    91   87   89 1   
    92   87   93 1   
    93   88   90 1   
    94   88   94 1   
    95   88   95 1   
    96   89   96 1   
    97   89   97 1   
    98   89   98 1   
    99   90   99 1   
   100   90  100 1   
   101   90  101 1   
   102  102  103 1   
   103  102  110 1   
   104  103  104 1   
   105  103  106 1   
   106  103  111 1   
   107  104  105 2   
   108  104  114 1   
   109  106  107 1   
   110  106  112 1   
   111  106  113 1   
   112  107  108 1   
   113  107  109 1   
   114  114  115 1   
   115  114  125 1   
   116  115  116 1   
   117  115  118 1   
   118  115  126 1   
   119  116  117 2   
   120  116  134 1   
   121  118  119 1   
   122  118  127 1   
   123  118  128 1   
   124  119  120 ar  
   125  119  121 ar  
   126  120  122 ar  
   127  120  129 1   
   128  121  123 ar  
   129  121  130 1   
   130  122  124 ar  
   131  122  131 1   
   132  123  124 ar  
   133  123  132 1   
   134  124  133 1   
   135  134  135 1   
   136  134  140 1   
   137  135  136 1   
   138  135  138 1   
   139  135  141 1   
   140  136  137 2   
   141  136  148 1   
   142  138  139 1   
   143  138  142 1   
   144  138  143 1   
   145  139  140 1   
   146  139  144 1   
   147  139  145 1   
   148  140  146 1   
   149  140  147 1   
   150  148  149 1   
   151  148  157 1   
   152  149  150 1   
   153  149  152 1   
   154  149  158 1   
   155  150  151 2   
   156  150  163 1   
   157  152  153 1   
   158  152  159 1   
   159  152  160 1   
   160  153  154 1   
   161  153  161 1   
   162  153  162 1   
   163  154  155 1   
   164  154  156 1   
   165  163  164 1   
   166  163  168 1   
   167  164  165 1   
   168  164  166 1   
   169  164  167 1   
   170  170  171 1   
   171  170  172 1   
   172  173  174 1   
   173  173  175 1   
@<TRIPOS>SUBSTRUCTURE
     1 MOL         1 TEMP              0 ****  ****    0 ROOT
