@<TRIPOS>MOLECULE
MOL
  189   185     1     0     0
SMALL
resp


@<TRIPOS>ATOM
      1 C1         -0.8370    1.3080    6.1190 c3        1 MOL     -0.338716
      2 C2         -1.2390    1.2100    4.6410 c         1 MOL      0.622400
      3 O1         -0.4590    1.4770    3.7300 o         1 MOL     -0.573688
      4 H1         -1.5410    0.7370    6.7250 hc        1 MOL      0.091137
      5 H2          0.1660    0.9040    6.2520 hc        1 MOL      0.091137
      6 H3         -0.8540    2.3530    6.4320 hc        1 MOL      0.091137
      7 N1         -2.4720    0.7610    4.3750 n         1 MOL     -0.570992
      8 C3         -3.0390    0.8300    3.0290 c3        1 MOL      0.141216
      9 C4         -3.5000    2.2830    2.7340 c         1 MOL      0.509735
     10 O2         -4.6100    2.6260    3.0670 o         1 MOL     -0.535196
     11 C5         -4.2110   -0.1210    2.6680 c3        1 MOL     -0.187078
     12 C6         -4.6230    0.0580    1.2210 c         1 MOL      0.721402
     13 O3         -5.8430   -0.0530    1.0370 o         1 MOL     -0.631361
     14 O4         -3.7990    0.4080    0.3210 o         1 MOL     -0.631361
     15 H4         -3.1280    0.5130    5.0950 hn        1 MOL      0.335442
     16 H5         -2.1900    0.5970    2.3750 h1        1 MOL     -0.004786
     17 H6         -5.0090    0.1510    3.3540 hc        1 MOL      0.035466
     18 H7         -3.8470   -1.1360    2.8090 hc        1 MOL      0.035466
     19 N2         -2.6420    3.0910    2.1070 n         1 MOL     -0.254087
     20 C7         -2.8410    4.5290    1.9260 c3        1 MOL     -0.063039
     21 C8         -3.5200    4.9020    0.6490 c         1 MOL      0.474196
     22 O5         -4.0780    6.0310    0.5620 o         1 MOL     -0.599233
     23 C9         -1.4920    5.1710    1.9970 c3        1 MOL     -0.049371
     24 C10        -0.5800    4.9230    0.7750 c3        1 MOL      0.131928
     25 C11         0.8910    5.3430    0.7320 c3        1 MOL     -0.027668
     26 C12         1.1940    6.8200    0.4950 c3        1 MOL      0.091844
     27 N3          2.6570    6.9530    0.5860 n4        1 MOL     -0.421821
     28 H8         -1.8350    2.6580    1.6810 hn        1 MOL      0.237219
     29 H9         -3.4940    4.9300    2.6960 h1        1 MOL      0.126013
     30 H10        -0.9380    5.0060    2.9200 hc        1 MOL      0.013822
     31 H11        -1.6500    6.2510    2.0250 hc        1 MOL      0.013822
     32 H12        -1.0240    5.3660   -0.1170 hc        1 MOL     -0.005671
     33 H13        -0.4640    3.8450    0.6490 hc        1 MOL     -0.005671
     34 H14         1.3900    4.7500   -0.0410 hc        1 MOL      0.021135
     35 H15         1.4380    5.0200    1.6180 hc        1 MOL      0.021135
     36 H16         0.6240    7.3980    1.2270 hx        1 MOL      0.063557
     37 H17         0.9200    7.1290   -0.5170 hx        1 MOL      0.063557
     38 H18         2.9510    7.8810    0.3500 hn        1 MOL      0.341120
     39 H19         2.9170    6.5890    1.4850 hn        1 MOL      0.341120
     40 H20         3.0080    6.3710   -0.1610 hn        1 MOL      0.341120
     41 N4         -3.6770    4.0330   -0.2890 n         1 MOL     -0.140212
     42 C13        -4.2840    4.1880   -1.5930 c3        1 MOL      0.025372
     43 C14        -5.4680    3.2550   -1.8820 c         1 MOL      0.527396
     44 O6         -6.0510    3.4150   -2.9830 o         1 MOL     -0.534047
     45 C15        -3.2080    4.3550   -2.7100 c3        1 MOL     -0.140734
     46 C16        -2.0090    3.3540   -2.5910 c         1 MOL      0.753225
     47 O7         -1.0050    3.5250   -3.3110 o         1 MOL     -0.728556
     48 O8         -2.0520    2.3900   -1.8130 o         1 MOL     -0.728556
     49 H21        -3.3540    3.1160   -0.0150 hn        1 MOL     -0.100665
     50 H22        -4.8220    5.1390   -1.6580 h1        1 MOL      0.085427
     51 H23        -2.7000    5.3210   -2.6810 hc        1 MOL      0.038539
     52 H24        -3.6720    4.3320   -3.6910 hc        1 MOL      0.038539
     53 N5         -5.9100    2.4680   -0.8610 n         1 MOL     -0.333094
     54 C17        -7.2620    1.9390   -0.8130 c3        1 MOL     -0.424298
     55 C18        -7.5790    0.6970   -1.5330 c         1 MOL      0.648390
     56 O9         -8.7330    0.4530   -1.8210 o         1 MOL     -0.601593
     57 H25        -5.3080    2.2390   -0.0820 hn        1 MOL      0.353688
     58 H26        -7.8720    2.7170   -1.2690 h1        1 MOL      0.183272
     59 H27        -7.5960    1.8330    0.2170 h1        1 MOL      0.183272
     60 N6         -6.6200   -0.1110   -1.9430 n         1 MOL     -0.226663
     61 C19        -6.7330   -1.4410   -2.5700 c3        1 MOL     -0.029616
     62 C20        -6.8840   -2.5660   -1.5180 c         1 MOL      0.364281
     63 O10        -7.1840   -3.7200   -1.8850 o         1 MOL     -0.532653
     64 C21        -5.4750   -1.6890   -3.4470 c3        1 MOL     -0.160608
     65 C22        -4.1220   -1.2320   -2.7730 c         1 MOL      0.692965
     66 O11        -3.6110   -1.8670   -1.8390 o         1 MOL     -0.718309
     67 O12        -3.4020   -0.3120   -3.2460 o         1 MOL     -0.718309
     68 H28        -5.7090    0.1340   -1.5780 hn        1 MOL      0.107422
     69 H29        -7.5400   -1.4340   -3.3010 h1        1 MOL      0.131385
     70 H30        -5.6620   -1.1250   -4.3650 hc        1 MOL      0.065477
     71 H31        -5.3810   -2.7410   -3.7080 hc        1 MOL      0.065477
     72 N7         -6.6000   -2.2860   -0.2590 n         1 MOL     -0.159647
     73 C23        -6.5650   -3.4100    0.7520 c3        1 MOL     -0.084537
     74 C24        -5.1850   -4.1780    0.7870 c         1 MOL      0.466315
     75 O13        -5.2510   -5.3040    1.3140 o         1 MOL     -0.571771
     76 H32        -6.4170   -1.3800    0.1530 hn        1 MOL      0.193144
     77 H33        -7.2960   -4.2040    0.5890 h1        1 MOL      0.081365
     78 H34        -6.7250   -3.0570    1.7680 h1        1 MOL      0.081365
     79 N8         -4.1070   -3.7000    0.2320 n         1 MOL     -0.121079
     80 C25        -2.7760   -4.4190    0.2460 c3        1 MOL     -0.228284
     81 C26        -1.4900   -3.4990    0.5270 c         1 MOL      0.699710
     82 O14        -1.6360   -2.2740    0.5760 o         1 MOL     -0.651469
     83 C27        -2.5770   -5.2780   -1.0310 c3        1 MOL      0.426529
     84 C28        -3.4860   -6.5310   -1.1560 c3        1 MOL     -0.405903
     85 O15        -2.8260   -4.5130   -2.1230 oh        1 MOL     -0.636981
     86 H35        -4.1180   -2.7350   -0.0790 hn        1 MOL      0.147207
     87 H36        -2.7340   -5.0770    1.1170 h1        1 MOL      0.092385
     88 H37        -1.5430   -5.5910   -1.1240 h1        1 MOL     -0.013436
     89 H38        -3.3970   -3.7770   -1.8730 ho        1 MOL      0.415655
     90 H39        -4.5090   -6.1870   -1.2720 hc        1 MOL      0.106536
     91 H40        -3.2640   -7.1500   -2.0270 hc        1 MOL      0.106536
     92 H41        -3.3360   -7.1250   -0.2600 hc        1 MOL      0.106536
     93 N9         -0.3510   -4.2010    0.7030 n         1 MOL     -0.558746
     94 C29         0.8170   -3.4550    1.2400 c3        1 MOL      0.311396
     95 C30         2.0030   -3.5680    0.3260 c         1 MOL      0.318715
     96 O16         2.4790   -4.6990    0.2090 o         1 MOL     -0.541878
     97 C31         1.1940   -3.9140    2.6350 c3        1 MOL     -0.010351
     98 C32         0.1400   -3.6570    3.7960 c3        1 MOL     -0.224382
     99 C33         2.5390   -3.3920    3.1200 c3        1 MOL     -0.059058
    100 C34        -0.3590   -2.1930    3.8260 c3        1 MOL      0.112742
    101 H42        -0.4440   -5.2040    0.7830 hn        1 MOL      0.295715
    102 H43         0.6340   -2.3810    1.2930 h1        1 MOL      0.150231
    103 H44         1.3710   -4.9860    2.6670 hc        1 MOL      0.019639
    104 H45         0.5250   -3.9320    4.7800 hc        1 MOL      0.049519
    105 H46        -0.7540   -4.2000    3.5040 hc        1 MOL      0.049519
    106 H47         2.5960   -2.2960    3.1410 hc        1 MOL      0.015902
    107 H48         2.7290   -3.8090    4.1070 hc        1 MOL      0.015902
    108 H49         3.3520   -3.7480    2.4990 hc        1 MOL      0.015902
    109 H50        -0.9940   -2.0370    2.9560 hc        1 MOL     -0.008665
    110 H51        -0.9690   -2.1230    4.7360 hc        1 MOL     -0.008665
    111 H52         0.4960   -1.5230    3.8790 hc        1 MOL     -0.008665
    112 N10         2.5410   -2.5280   -0.3480 n         1 MOL     -0.047038
    113 C35         3.7630   -2.4940   -1.2130 c3        1 MOL      0.078748
    114 C36         5.0790   -2.3370   -0.4010 c         1 MOL      0.355248
    115 O17         5.0280   -2.0740    0.7670 o         1 MOL     -0.272044
    116 C37         3.7840   -1.3920   -2.2980 c3        1 MOL      0.075962
    117 C38         2.7030   -1.5770   -3.3190 c3        1 MOL     -0.644426
    118 O18         3.5560   -0.1640   -1.6130 oh        1 MOL     -0.235597
    119 H53         2.0260   -1.6550   -0.3510 hn        1 MOL     -0.063508
    120 H54         3.8890   -3.4910   -1.6480 h1        1 MOL      0.062811
    121 H55         4.7290   -1.3250   -2.8400 h1        1 MOL      0.055825
    122 H56         2.9610    0.3830   -2.1340 ho        1 MOL      0.331608
    123 H57         2.6800   -0.7360   -4.0070 hc        1 MOL      0.193456
    124 H58         2.6290   -2.5990   -3.7000 hc        1 MOL      0.193456
    125 H59         1.7530   -1.3680   -2.8300 hc        1 MOL      0.193456
    126 N11         6.2090   -2.4080   -1.0690 n         1 MOL     -0.450962
    127 C39         7.4350   -1.8870   -0.3790 c3        1 MOL      0.099255
    128 C40         7.3830   -0.5210    0.1510 c         1 MOL      0.191863
    129 O19         7.7700   -0.2850    1.2740 o         1 MOL     -0.453807
    130 C41         8.6790   -2.0150   -1.2470 c3        1 MOL      0.120387
    131 C42         9.0470   -3.4340   -1.6750 c3        1 MOL     -0.496125
    132 O20         8.4270   -1.2630   -2.4430 oh        1 MOL     -0.589462
    133 H60         6.1740   -2.4810   -2.0660 hn        1 MOL      0.288271
    134 H61         7.5470   -2.5300    0.4940 h1        1 MOL      0.131606
    135 H62         9.4930   -1.6130   -0.6400 h1        1 MOL      0.089674
    136 H63         9.2490   -1.4080   -2.9150 ho        1 MOL      0.394270
    137 H64         9.2090   -3.9110   -0.7130 hc        1 MOL      0.154915
    138 H65         8.1780   -3.8020   -2.2180 hc        1 MOL      0.154915
    139 H66         9.9290   -3.5330   -2.3080 hc        1 MOL      0.154915
    140 N12         6.7340    0.4240   -0.5610 n         1 MOL     -0.032486
    141 C43         6.6000    1.8240   -0.1980 c3        1 MOL      0.041711
    142 C44         5.7100    1.9460    1.0950 c         1 MOL      0.312405
    143 O21         5.8250    2.9030    1.8720 o         1 MOL     -0.522399
    144 C45         5.9440    2.7100   -1.2460 c3        1 MOL     -0.408536
    145 C46         6.2700    2.2820   -2.6400 c3        1 MOL      0.215992
    146 C47         7.7080    2.3070   -3.2920 c3        1 MOL      0.132883
    147 C48         7.8730    1.6460   -4.6840 c3        1 MOL     -0.048007
    148 N13         9.2380    1.8730   -5.1720 n4        1 MOL     -0.187859
    149 H67         6.3240    0.1110   -1.4310 hn        1 MOL      0.247122
    150 H68         7.5650    2.3110   -0.0140 h1        1 MOL      0.082472
    151 H69         6.2770    3.7290   -1.0380 hc        1 MOL      0.144134
    152 H70         4.8700    2.5590   -1.1210 hc        1 MOL      0.144134
    153 H71         5.6430    2.8530   -3.3230 hc        1 MOL     -0.062993
    154 H72         5.9140    1.2540   -2.6570 hc        1 MOL     -0.062993
    155 H73         8.3230    1.7470   -2.5810 hc        1 MOL     -0.037732
    156 H74         8.0790    3.3300   -3.2810 hc        1 MOL     -0.037732
    157 H75         7.2000    2.1510   -5.3780 hx        1 MOL      0.082840
    158 H76         7.7080    0.5700   -4.6280 hx        1 MOL      0.082840
    159 H77         9.4420    1.6840   -6.1500 hn        1 MOL      0.265895
    160 H78         9.3600    2.8730   -5.1190 hn        1 MOL      0.265895
    161 H79         9.9390    1.4120   -4.6190 hn        1 MOL      0.265895
    162 N14         4.7570    1.0220    1.2860 n         1 MOL      0.176204
    163 C49         3.9360    0.9030    2.4940 c3        1 MOL     -0.126289
    164 C50         4.4820    0.0950    3.6640 c         1 MOL      0.552227
    165 O22         4.3980    0.5180    4.8070 o         1 MOL     -0.565848
    166 C51         2.4840    0.5040    2.0600 c3        1 MOL      0.051950
    167 C52         1.7470    1.4000    1.0660 c3        1 MOL     -0.014020
    168 C53         0.5330    0.6580    0.5540 c         1 MOL      0.576104
    169 O23         0.6190   -0.2670   -0.2310 o         1 MOL     -0.617372
    170 O24        -0.6310    1.1040    0.6990 o         1 MOL     -0.617372
    171 H80         4.4600    0.4610    0.4960 hn        1 MOL     -0.383170
    172 H81         3.8530    1.9180    2.8740 h1        1 MOL      0.076140
    173 H82         1.9030    0.3040    2.9610 hc        1 MOL      0.036609
    174 H83         2.4940   -0.4470    1.5310 hc        1 MOL      0.036609
    175 H84         2.3800    1.6030    0.1980 hc        1 MOL      0.002699
    176 H85         1.5570    2.3540    1.5570 hc        1 MOL      0.002699
    177 N15         5.1630   -1.0170    3.4230 n         1 MOL     -0.154144
    178 C54         5.7570   -1.8070    4.5130 c3        1 MOL     -0.249937
    179 H86         5.2550   -2.7720    4.5760 h1        1 MOL      0.101169
    180 H87         6.8180   -1.9620    4.3150 h1        1 MOL      0.101169
    181 H88         5.6370   -1.2740    5.4560 h1        1 MOL      0.101169
    182 H89         5.0590   -1.4270    2.5090 hn        1 MOL      0.139486
    183 Ca1        -1.7520   -0.1560   -1.2230 Ca        1 MOL      1.758279
    184 O25        -0.6840   -2.4950   -2.4570 oh        1 MOL     -0.875457
    185 H90        -0.2350   -2.4390   -3.3030 ho        1 MOL      0.406965
    186 H91        -1.2530   -3.2570   -2.5240 ho        1 MOL      0.406965
    187 O26        -0.3390    0.6860   -3.5140 oh        1 MOL     -0.875457
    188 H92        -0.0770    0.5130   -4.4160 ho        1 MOL      0.406965
    189 H93        -0.7430    1.5570   -3.5440 ho        1 MOL      0.406965
@<TRIPOS>BOND
     1    1    2 1   
     2    1    4 1   
     3    1    5 1   
     4    1    6 1   
     5    2    3 2   
     6    2    7 1   
     7    7    8 1   
     8    7   15 1   
     9    8    9 1   
    10    8   11 1   
    11    8   16 1   
    12    9   10 2   
    13    9   19 1   
    14   11   12 1   
    15   11   17 1   
    16   11   18 1   
    17   12   13 1   
    18   12   14 1   
    19   19   20 1   
    20   19   28 1   
    21   20   21 1   
    22   20   23 1   
    23   20   29 1   
    24   21   22 2   
    25   21   41 1   
    26   23   24 1   
    27   23   30 1   
    28   23   31 1   
    29   24   25 1   
    30   24   32 1   
    31   24   33 1   
    32   25   26 1   
    33   25   34 1   
    34   25   35 1   
    35   26   27 1   
    36   26   36 1   
    37   26   37 1   
    38   27   38 1   
    39   27   39 1   
    40   27   40 1   
    41   41   42 1   
    42   41   49 1   
    43   42   43 1   
    44   42   45 1   
    45   42   50 1   
    46   43   44 2   
    47   43   53 1   
    48   45   46 1   
    49   45   51 1   
    50   45   52 1   
    51   46   47 1   
    52   46   48 1   
    53   53   54 1   
    54   53   57 1   
    55   54   55 1   
    56   54   58 1   
    57   54   59 1   
    58   55   56 2   
    59   55   60 1   
    60   60   61 1   
    61   60   68 1   
    62   61   62 1   
    63   61   64 1   
    64   61   69 1   
    65   62   63 2   
    66   62   72 1   
    67   64   65 1   
    68   64   70 1   
    69   64   71 1   
    70   65   66 1   
    71   65   67 1   
    72   72   73 1   
    73   72   76 1   
    74   73   74 1   
    75   73   77 1   
    76   73   78 1   
    77   74   75 2   
    78   74   79 1   
    79   79   80 1   
    80   79   86 1   
    81   80   81 1   
    82   80   83 1   
    83   80   87 1   
    84   81   82 2   
    85   81   93 1   
    86   83   84 1   
    87   83   85 1   
    88   83   88 1   
    89   84   90 1   
    90   84   91 1   
    91   84   92 1   
    92   85   89 1   
    93   93   94 1   
    94   93  101 1   
    95   94   95 1   
    96   94   97 1   
    97   94  102 1   
    98   95   96 2   
    99   95  112 1   
   100   97   98 1   
   101   97   99 1   
   102   97  103 1   
   103   98  100 1   
   104   98  104 1   
   105   98  105 1   
   106   99  106 1   
   107   99  107 1   
   108   99  108 1   
   109  100  109 1   
   110  100  110 1   
   111  100  111 1   
   112  112  113 1   
   113  112  119 1   
   114  113  114 1   
   115  113  116 1   
   116  113  120 1   
   117  114  115 2   
   118  114  126 1   
   119  116  117 1   
   120  116  118 1   
   121  116  121 1   
   122  117  123 1   
   123  117  124 1   
   124  117  125 1   
   125  118  122 1   
   126  126  127 1   
   127  126  133 1   
   128  127  128 1   
   129  127  130 1   
   130  127  134 1   
   131  128  129 2   
   132  128  140 1   
   133  130  131 1   
   134  130  132 1   
   135  130  135 1   
   136  131  137 1   
   137  131  138 1   
   138  131  139 1   
   139  132  136 1   
   140  140  141 1   
   141  140  149 1   
   142  141  142 1   
   143  141  144 1   
   144  141  150 1   
   145  142  143 2   
   146  142  162 1   
   147  144  145 1   
   148  144  151 1   
   149  144  152 1   
   150  145  146 1   
   151  145  153 1   
   152  145  154 1   
   153  146  147 1   
   154  146  155 1   
   155  146  156 1   
   156  147  148 1   
   157  147  157 1   
   158  147  158 1   
   159  148  159 1   
   160  148  160 1   
   161  148  161 1   
   162  162  163 1   
   163  162  171 1   
   164  163  164 1   
   165  163  166 1   
   166  163  172 1   
   167  164  165 2   
   168  164  177 1   
   169  166  167 1   
   170  166  173 1   
   171  166  174 1   
   172  167  168 1   
   173  167  175 1   
   174  167  176 1   
   175  168  169 1   
   176  168  170 1   
   177  177  178 1   
   178  177  182 1   
   179  178  179 1   
   180  178  180 1   
   181  178  181 1   
   182  184  185 1   
   183  184  186 1   
   184  187  188 1   
   185  187  189 1   
@<TRIPOS>SUBSTRUCTURE
     1 MOL         1 TEMP              0 ****  ****    0 ROOT
