@<TRIPOS>MOLECULE
MOL
  183   181     1     0     0
SMALL
resp


@<TRIPOS>ATOM
      1 C1         -0.2110    1.7940    6.2510 c3        1 MOL     -0.330617
      2 C2         -0.6280    1.5790    4.8200 c         1 MOL      0.863155
      3 O1          0.1400    1.9130    3.9550 o         1 MOL     -0.623383
      4 H1          0.4760    1.0030    6.5520 hc        1 MOL      0.069373
      5 H2          0.2840    2.7600    6.3450 hc        1 MOL      0.069373
      6 H3         -1.0920    1.7720    6.8940 hc        1 MOL      0.069373
      7 N1         -1.8460    1.1780    4.4940 n         1 MOL     -0.717230
      8 C3         -2.4930    1.3240    3.1670 c3        1 MOL      0.265547
      9 C4         -2.8860    2.7600    2.8940 c         1 MOL      0.587257
     10 O2         -3.4320    3.4020    3.7760 o         1 MOL     -0.585561
     11 C5         -3.7200    0.4180    3.2350 c3        1 MOL     -0.107924
     12 C6         -4.3710    0.1730    1.8940 c         1 MOL      0.590199
     13 O3         -5.6260   -0.1210    1.8540 o         1 MOL     -0.620734
     14 O4         -3.6670    0.3380    0.9010 o         1 MOL     -0.620734
     15 H4         -2.4270    0.6800    5.1560 hn        1 MOL      0.309543
     16 H5         -1.8300    0.9690    2.3760 h1        1 MOL     -0.042968
     17 H6         -4.4250    0.7820    3.9710 hc        1 MOL      0.013072
     18 H7         -3.3510   -0.5630    3.5290 hc        1 MOL      0.013072
     19 N2         -2.6100    3.2300    1.6620 n         1 MOL     -0.373540
     20 C7         -2.8260    4.6270    1.2420 c3        1 MOL     -0.020820
     21 C8         -3.9820    4.8240    0.2580 c         1 MOL      0.605267
     22 O5         -4.7490    5.7300    0.4960 o         1 MOL     -0.584584
     23 C9         -1.5010    5.2620    0.7180 c3        1 MOL      0.150651
     24 C10        -0.2700    5.2460    1.6910 c3        1 MOL      0.093648
     25 C11        -1.7100    6.7640    0.2830 c3        1 MOL     -0.327846
     26 C12         1.0140    5.4600    0.9490 c3        1 MOL     -0.210145
     27 H8         -1.9270    2.6670    1.1890 hn        1 MOL      0.245090
     28 H9         -3.0900    5.1970    2.1360 h1        1 MOL      0.057033
     29 H10        -1.2930    4.7850   -0.2420 hc        1 MOL      0.028922
     30 H11        -0.2280    4.2370    2.1110 hc        1 MOL     -0.021824
     31 H12        -0.4390    5.9000    2.5480 hc        1 MOL     -0.021824
     32 H13        -2.0500    7.3710    1.1150 hc        1 MOL      0.062996
     33 H14        -0.8540    7.2810   -0.1430 hc        1 MOL      0.062996
     34 H15        -2.5320    6.8510   -0.4390 hc        1 MOL      0.062996
     35 H16         1.9100    5.5390    1.5720 hc        1 MOL      0.052734
     36 H17         1.0790    4.5560    0.3360 hc        1 MOL      0.052734
     37 H18         0.9230    6.3450    0.3260 hc        1 MOL      0.052734
     38 N3         -4.1790    3.7940   -0.6370 n         1 MOL     -0.339948
     39 C13        -5.2050    3.8420   -1.6890 c3        1 MOL      0.012909
     40 C14        -6.4180    3.0100   -1.5320 c         1 MOL      0.446037
     41 O6         -7.3050    2.8770   -2.3790 o         1 MOL     -0.503111
     42 C15        -4.5720    3.5630   -3.0610 c3        1 MOL     -0.255197
     43 C16        -3.8580    2.1910   -3.1570 c         1 MOL      0.844061
     44 O7         -3.5800    1.8410   -4.3080 o         1 MOL     -0.706171
     45 O8         -3.7120    1.4340   -2.1490 o         1 MOL     -0.706171
     46 H19        -3.5490    3.0010   -0.6510 hn        1 MOL      0.183926
     47 H20        -5.4930    4.8900   -1.6650 h1        1 MOL      0.078529
     48 H21        -3.8210    4.3430   -3.1890 hc        1 MOL      0.055685
     49 H22        -5.3080    3.5400   -3.8570 hc        1 MOL      0.055685
     50 N4         -6.4970    2.2940   -0.3590 n         1 MOL     -0.356103
     51 C17        -7.8000    1.7280    0.1040 c3        1 MOL     -0.037812
     52 C18        -8.1860    0.3560   -0.4810 c         1 MOL      0.475020
     53 O9         -9.3850    0.1850   -0.7750 o         1 MOL     -0.584841
     54 H23        -5.6560    2.1090    0.1670 hn        1 MOL      0.238401
     55 H24        -8.6140    2.4060   -0.1580 h1        1 MOL      0.062305
     56 H25        -7.8870    1.6790    1.1890 h1        1 MOL      0.062305
     57 N5         -7.1360   -0.4970   -0.6540 n         1 MOL     -0.141881
     58 C19        -7.3390   -1.8890   -1.1530 c3        1 MOL      0.049607
     59 C20        -7.2200   -2.9810   -0.0840 c         1 MOL      0.320805
     60 O10        -7.7050   -4.1290   -0.2730 o         1 MOL     -0.557943
     61 C21        -6.4660   -2.1950   -2.3740 c3        1 MOL     -0.192553
     62 C22        -5.0270   -1.9880   -2.1030 c         1 MOL      0.749248
     63 O11        -4.2600   -1.6120   -3.0540 o         1 MOL     -0.730108
     64 O12        -4.5460   -2.1580   -0.9540 o         1 MOL     -0.730108
     65 H26        -6.2580   -0.2830   -0.1970 hn        1 MOL      0.103883
     66 H27        -8.3840   -1.9770   -1.4690 h1        1 MOL      0.083051
     67 H28        -6.8220   -1.5400   -3.1730 hc        1 MOL      0.056580
     68 H29        -6.6230   -3.2310   -2.6660 hc        1 MOL      0.056580
     69 N6         -6.8740   -2.7010    1.1610 n         1 MOL     -0.115564
     70 C23        -6.5970   -3.6090    2.2950 c3        1 MOL     -0.223463
     71 C24        -5.2420   -4.2660    2.1800 c         1 MOL      0.598506
     72 O13        -5.1180   -5.3340    2.7330 o         1 MOL     -0.593892
     73 H30        -6.5510   -1.7510    1.3290 hn        1 MOL      0.115204
     74 H31        -7.3730   -4.3680    2.1890 h1        1 MOL      0.101400
     75 H32        -6.6960   -3.0600    3.2290 h1        1 MOL      0.101400
     76 N7         -4.2750   -3.7510    1.3480 n         1 MOL     -0.253123
     77 C25        -2.9100   -4.3500    1.3110 c3        1 MOL     -0.128705
     78 C26        -1.7580   -3.3280    1.1490 c         1 MOL      0.618350
     79 O14        -2.0620   -2.1460    0.8750 o         1 MOL     -0.577870
     80 C27        -2.8130   -5.4530    0.2920 c3        1 MOL      0.246723
     81 C28        -3.2420   -5.1240   -1.1470 c3        1 MOL     -0.276842
     82 C29        -2.2250   -4.2220   -1.9580 c         1 MOL      0.546586
     83 N8         -1.8970   -4.6760   -3.1390 n         1 MOL     -0.670817
     84 O15        -1.7970   -3.1460   -1.6330 o         1 MOL     -0.499734
     85 H33        -4.5270   -2.9190    0.8370 hn        1 MOL      0.275678
     86 H34        -2.8820   -4.8400    2.2740 h1        1 MOL      0.060413
     87 H35        -3.3570   -6.3440    0.6010 hc        1 MOL     -0.043119
     88 H36        -1.8200   -5.8900    0.2530 hc        1 MOL     -0.043119
     89 H37        -4.2120   -4.6340   -1.2190 hc        1 MOL      0.077556
     90 H38        -3.3180   -6.1030   -1.6210 hc        1 MOL      0.077556
     91 H39        -2.3690   -5.5230   -3.4230 hn        1 MOL      0.324674
     92 H40        -1.3140   -4.1360   -3.7720 hn        1 MOL      0.324674
     93 N9         -0.5000   -3.6500    1.4850 n         1 MOL     -0.509228
     94 C30         0.5830   -2.6380    1.4830 c3        1 MOL      0.064301
     95 C31         1.8890   -3.1130    0.7810 c         1 MOL      0.425798
     96 O16         2.5290   -4.0720    1.2510 o         1 MOL     -0.558497
     97 C32         0.9280   -2.2610    2.9950 c3        1 MOL      0.221683
     98 C33         1.9620   -1.1000    3.1610 c3        1 MOL     -0.346024
     99 C34        -0.3220   -1.8410    3.8170 c3        1 MOL     -0.346024
    100 H41        -0.2230   -4.5750    1.7880 hn        1 MOL      0.297768
    101 H42         0.2550   -1.7260    0.9930 h1        1 MOL      0.034454
    102 H43         1.3690   -3.1590    3.4150 hc        1 MOL     -0.028850
    103 H44         2.6860   -1.2840    2.3820 hc        1 MOL      0.076822
    104 H45         1.5590   -0.0920    3.0290 hc        1 MOL      0.076822
    105 H46         2.3530   -1.0750    4.1760 hc        1 MOL      0.076822
    106 H47         0.0580   -1.5020    4.7830 hc        1 MOL      0.076822
    107 H48        -0.8140   -0.9780    3.3780 hc        1 MOL      0.076822
    108 H49        -1.0470   -2.6420    3.9850 hc        1 MOL      0.076822
    109 N10         2.2680   -2.3260   -0.2290 n         1 MOL     -0.162798
    110 C35         3.4960   -2.5540   -0.9790 c3        1 MOL      0.134594
    111 C36         4.7100   -1.8760   -0.3430 c         1 MOL      0.325265
    112 O17         4.6280   -0.9900    0.4190 o         1 MOL     -0.209793
    113 C37         3.2340   -1.8580   -2.3400 c3        1 MOL     -0.423670
    114 C38         2.2020   -2.5100   -3.2840 c         1 MOL      0.696425
    115 N11         1.0060   -1.9880   -3.2740 n         1 MOL     -0.786349
    116 O18         2.4210   -3.5290   -3.9340 o         1 MOL     -0.616837
    117 H50         1.6650   -1.5560   -0.4760 hn        1 MOL      0.141137
    118 H51         3.7560   -3.6150   -0.9900 h1        1 MOL      0.048691
    119 H52         4.1290   -1.6080   -2.8990 hc        1 MOL      0.131768
    120 H53         2.8430   -0.8730   -2.0780 hc        1 MOL      0.131768
    121 H54         0.6710   -1.2380   -2.6880 hn        1 MOL      0.371652
    122 H55         0.3270   -2.4160   -3.8980 hn        1 MOL      0.371652
    123 N12         5.8840   -2.1720   -0.8120 n         1 MOL     -0.476252
    124 C39         7.1780   -1.6270   -0.2120 c3        1 MOL      0.052818
    125 C40         7.3570   -0.0960   -0.3400 c         1 MOL      0.586230
    126 O19         7.7480    0.5880    0.5780 o         1 MOL     -0.492995
    127 C41         8.3820   -2.4220   -0.7110 c3        1 MOL     -0.041268
    128 C42         9.7040   -1.9960   -0.1440 ca        1 MOL     -0.085804
    129 C43         9.9790   -2.4040    1.1780 ca        1 MOL     -0.075686
    130 C44        10.5670   -1.1330   -0.8490 ca        1 MOL     -0.075686
    131 C45        11.1610   -1.9690    1.8280 ca        1 MOL     -0.329568
    132 C46        11.7410   -0.7760   -0.1880 ca        1 MOL     -0.329568
    133 C47        12.0170   -1.1100    1.1880 ca        1 MOL      0.407735
    134 O20        13.1040   -0.6500    1.8400 oh        1 MOL     -0.474599
    135 H56         5.9630   -2.7970   -1.6000 hn        1 MOL      0.285241
    136 H57         7.0300   -1.8930    0.8390 h1        1 MOL      0.083926
    137 H58         8.3720   -2.3570   -1.7990 hc        1 MOL      0.035003
    138 H59         8.3150   -3.4960   -0.5450 hc        1 MOL      0.035003
    139 H60         9.2230   -2.9850    1.7010 ha        1 MOL      0.126394
    140 H61        10.3040   -0.8710   -1.8540 ha        1 MOL      0.126394
    141 H62        11.4260   -2.3070    2.8160 ha        1 MOL      0.152350
    142 H63        12.4170   -0.1290   -0.7240 ha        1 MOL      0.152350
    143 H64        13.5060   -0.0620    1.2060 ho        1 MOL      0.336369
    144 N13         6.7470    0.2940   -1.4740 n         1 MOL     -0.508407
    145 C48         6.4490    1.7030   -1.8020 c3        1 MOL      0.072925
    146 C49         5.5820    2.4240   -0.7570 c         1 MOL      0.228123
    147 O21         5.8540    3.5710   -0.3990 o         1 MOL     -0.484354
    148 C50         5.7720    1.6390   -3.1690 c3        1 MOL     -0.064603
    149 C51         5.5230    3.0520   -3.7320 c3        1 MOL     -0.318447
    150 C52         4.2560    3.0330   -4.6540 c         1 MOL      0.789827
    151 O22         3.1770    3.6000   -4.3440 o         1 MOL     -0.751076
    152 O23         4.4550    2.6490   -5.8140 o         1 MOL     -0.751076
    153 H65         6.4180   -0.4100   -2.1190 hn        1 MOL      0.270240
    154 H66         7.4100    2.2060   -1.9270 h1        1 MOL      0.089619
    155 H67         4.8510    1.0530   -3.1580 hc        1 MOL      0.024796
    156 H68         6.4510    1.1700   -3.8820 hc        1 MOL      0.024796
    157 H69         6.3490    3.4350   -4.3370 hc        1 MOL      0.068573
    158 H70         5.3940    3.7670   -2.9110 hc        1 MOL      0.068573
    159 N14         4.5390    1.7430   -0.2790 n         1 MOL      0.043097
    160 C53         3.6230    2.2990    0.7020 c3        1 MOL     -0.078786
    161 C54         4.1550    2.2010    2.1180 c         1 MOL      0.380307
    162 O24         3.9610    3.0330    3.0120 o         1 MOL     -0.540040
    163 C55         2.2140    1.5800    0.6510 c3        1 MOL     -0.258465
    164 C56         1.5380    1.5710   -0.6880 c3        1 MOL     -0.145136
    165 C57         0.2350    0.8480   -0.7420 c         1 MOL      0.912372
    166 O25        -0.8400    1.4400   -0.4530 o         1 MOL     -0.774690
    167 O26         0.1820   -0.3840   -1.1130 o         1 MOL     -0.774690
    168 H71         4.4600    0.7730   -0.5380 hn        1 MOL      0.143011
    169 H72         3.4230    3.3390    0.4550 h1        1 MOL      0.123840
    170 H73         1.6030    2.1250    1.3690 hc        1 MOL      0.174064
    171 H74         2.2970    0.5620    1.0100 hc        1 MOL      0.174064
    172 H75         2.1830    0.9880   -1.3430 hc        1 MOL      0.034102
    173 H76         1.3440    2.5750   -1.0550 hc        1 MOL      0.034102
    174 N15         4.8760    1.1380    2.4690 n         1 MOL      0.068957
    175 C58         5.3490    0.7860    3.7720 c3        1 MOL     -0.420811
    176 H77         5.8830   -0.1630    3.7200 h1        1 MOL      0.129455
    177 H78         6.0230    1.5620    4.1370 h1        1 MOL      0.129455
    178 H79         4.5020    0.6900    4.4520 h1        1 MOL      0.129455
    179 H80         5.0660    0.4820    1.7200 hn        1 MOL     -0.038558
    180 Ca1        -2.4240   -0.5970   -1.2440 Ca        1 MOL      1.710870
    181 O27        -1.3420    0.0890   -3.6510 oh        1 MOL     -0.960585
    182 H81        -2.1070    0.4690   -4.0740 ho        1 MOL      0.436861
    183 H82        -0.6480    0.1490   -4.3030 ho        1 MOL      0.436861
@<TRIPOS>BOND
     1    1    2 1   
     2    1    4 1   
     3    1    5 1   
     4    1    6 1   
     5    2    3 2   
     6    2    7 1   
     7    7    8 1   
     8    7   15 1   
     9    8    9 1   
    10    8   11 1   
    11    8   16 1   
    12    9   10 2   
    13    9   19 1   
    14   11   12 1   
    15   11   17 1   
    16   11   18 1   
    17   12   13 1   
    18   12   14 1   
    19   19   20 1   
    20   19   27 1   
    21   20   21 1   
    22   20   23 1   
    23   20   28 1   
    24   21   22 2   
    25   21   38 1   
    26   23   24 1   
    27   23   25 1   
    28   23   29 1   
    29   24   26 1   
    30   24   30 1   
    31   24   31 1   
    32   25   32 1   
    33   25   33 1   
    34   25   34 1   
    35   26   35 1   
    36   26   36 1   
    37   26   37 1   
    38   38   39 1   
    39   38   46 1   
    40   39   40 1   
    41   39   42 1   
    42   39   47 1   
    43   40   41 2   
    44   40   50 1   
    45   42   43 1   
    46   42   48 1   
    47   42   49 1   
    48   43   44 1   
    49   43   45 1   
    50   50   51 1   
    51   50   54 1   
    52   51   52 1   
    53   51   55 1   
    54   51   56 1   
    55   52   53 2   
    56   52   57 1   
    57   57   58 1   
    58   57   65 1   
    59   58   59 1   
    60   58   61 1   
    61   58   66 1   
    62   59   60 2   
    63   59   69 1   
    64   61   62 1   
    65   61   67 1   
    66   61   68 1   
    67   62   63 1   
    68   62   64 1   
    69   69   70 1   
    70   69   73 1   
    71   70   71 1   
    72   70   74 1   
    73   70   75 1   
    74   71   72 2   
    75   71   76 1   
    76   76   77 1   
    77   76   85 1   
    78   77   78 1   
    79   77   80 1   
    80   77   86 1   
    81   78   79 2   
    82   78   93 1   
    83   80   81 1   
    84   80   87 1   
    85   80   88 1   
    86   81   82 1   
    87   81   89 1   
    88   81   90 1   
    89   82   83 1   
    90   82   84 2   
    91   83   91 1   
    92   83   92 1   
    93   93   94 1   
    94   93  100 1   
    95   94   95 1   
    96   94   97 1   
    97   94  101 1   
    98   95   96 2   
    99   95  109 1   
   100   97   98 1   
   101   97   99 1   
   102   97  102 1   
   103   98  103 1   
   104   98  104 1   
   105   98  105 1   
   106   99  106 1   
   107   99  107 1   
   108   99  108 1   
   109  109  110 1   
   110  109  117 1   
   111  110  111 1   
   112  110  113 1   
   113  110  118 1   
   114  111  112 2   
   115  111  123 1   
   116  113  114 1   
   117  113  119 1   
   118  113  120 1   
   119  114  115 1   
   120  114  116 2   
   121  115  121 1   
   122  115  122 1   
   123  123  124 1   
   124  123  135 1   
   125  124  125 1   
   126  124  127 1   
   127  124  136 1   
   128  125  126 2   
   129  125  144 1   
   130  127  128 1   
   131  127  137 1   
   132  127  138 1   
   133  128  129 ar  
   134  128  130 ar  
   135  129  131 ar  
   136  129  139 1   
   137  130  132 ar  
   138  130  140 1   
   139  131  133 ar  
   140  131  141 1   
   141  132  133 ar  
   142  132  142 1   
   143  133  134 1   
   144  134  143 1   
   145  144  145 1   
   146  144  153 1   
   147  145  146 1   
   148  145  148 1   
   149  145  154 1   
   150  146  147 2   
   151  146  159 1   
   152  148  149 1   
   153  148  155 1   
   154  148  156 1   
   155  149  150 1   
   156  149  157 1   
   157  149  158 1   
   158  150  151 1   
   159  150  152 1   
   160  159  160 1   
   161  159  168 1   
   162  160  161 1   
   163  160  163 1   
   164  160  169 1   
   165  161  162 2   
   166  161  174 1   
   167  163  164 1   
   168  163  170 1   
   169  163  171 1   
   170  164  165 1   
   171  164  172 1   
   172  164  173 1   
   173  165  166 1   
   174  165  167 1   
   175  174  175 1   
   176  174  179 1   
   177  175  176 1   
   178  175  177 1   
   179  175  178 1   
   180  181  182 1   
   181  181  183 1   
@<TRIPOS>SUBSTRUCTURE
     1 MOL         1 TEMP              0 ****  ****    0 ROOT
