@<TRIPOS>MOLECULE
MOL
  186   183     1     0     0
SMALL
resp


@<TRIPOS>ATOM
      1 C1          0.3840   -1.8720    6.2440 c3        1 MOL     -0.263211
      2 C2          0.7260   -2.0260    4.7610 c         1 MOL      0.759873
      3 O1         -0.1140   -2.5120    3.9960 o         1 MOL     -0.607087
      4 H1         -0.7000   -1.8660    6.3670 hc        1 MOL      0.064849
      5 H2          0.8080   -2.7050    6.8040 hc        1 MOL      0.064849
      6 H3          0.7960   -0.9350    6.6170 hc        1 MOL      0.064849
      7 N1          1.8750   -1.4950    4.2470 n         1 MOL     -0.608404
      8 C3          2.4300   -1.6100    2.9340 c3        1 MOL      0.094611
      9 C4          2.8120   -3.0710    2.6070 c         1 MOL      0.507064
     10 O2          3.5680   -3.7570    3.3540 o         1 MOL     -0.553705
     11 C5          3.6370   -0.6310    2.7640 c3        1 MOL     -0.041017
     12 C6          4.4620   -0.9010    1.4960 c         1 MOL      0.569866
     13 O3          5.6220   -1.2730    1.5210 o         1 MOL     -0.628273
     14 O4          3.8290   -0.8940    0.4130 o         1 MOL     -0.628273
     15 H4          2.4850   -0.9840    4.8650 hn        1 MOL      0.297038
     16 H5          1.7090   -1.2810    2.1820 h1        1 MOL     -0.021193
     17 H6          4.2720   -0.6620    3.6410 hc        1 MOL      0.000605
     18 H7          3.2030    0.3690    2.7500 hc        1 MOL      0.000605
     19 N2          2.2330   -3.5970    1.4800 n         1 MOL     -0.278712
     20 C7          2.4870   -4.9560    1.0840 c3        1 MOL     -0.039951
     21 C8          3.7160   -5.1290    0.0890 c         1 MOL      0.551966
     22 O5          4.5500   -6.0430    0.2850 o         1 MOL     -0.596875
     23 C9          1.1290   -5.5140    0.5100 c3        1 MOL      0.293587
     24 C10        -0.1210   -5.0790    1.3160 c3        1 MOL      0.055928
     25 C11         1.2970   -7.0290    0.4220 c3        1 MOL     -0.526311
     26 C12        -1.4750   -5.5800    0.7440 c3        1 MOL     -0.160637
     27 H8          1.6320   -2.9770    0.9560 hn        1 MOL      0.207450
     28 H9          2.6510   -5.5880    1.9590 h1        1 MOL      0.057850
     29 H10         1.0410   -5.2020   -0.5250 hc        1 MOL      0.005133
     30 H11        -0.2000   -3.9950    1.3950 hc        1 MOL      0.002555
     31 H12        -0.0860   -5.4830    2.3240 hc        1 MOL      0.002555
     32 H13         0.4200   -7.5180   -0.0070 hc        1 MOL      0.104088
     33 H14         2.0510   -7.2740   -0.3340 hc        1 MOL      0.104088
     34 H15         1.5710   -7.4410    1.3900 hc        1 MOL      0.104088
     35 H16        -1.5410   -6.6470    0.5090 hc        1 MOL      0.031426
     36 H17        -2.2990   -5.3460    1.4180 hc        1 MOL      0.031426
     37 H18        -1.6720   -5.0950   -0.2160 hc        1 MOL      0.031426
     38 N3          3.9860   -4.1480   -0.7900 n         1 MOL     -0.344078
     39 C13         4.7620   -4.3070   -1.9810 c3        1 MOL      0.099876
     40 C14         6.0940   -3.5520   -1.8610 c         1 MOL      0.420213
     41 O6          6.8930   -3.8930   -2.6880 o         1 MOL     -0.566767
     42 C15         4.0540   -3.8910   -3.2720 c3        1 MOL     -0.331217
     43 C16         3.0180   -2.7850   -3.0990 c         1 MOL      0.728448
     44 O7          3.3500   -1.7760   -2.4890 o         1 MOL     -0.680315
     45 O8          1.8860   -2.8700   -3.6580 o         1 MOL     -0.680315
     46 H19         3.4920   -3.2790   -0.7310 hn        1 MOL      0.236261
     47 H20         5.0310   -5.3600   -2.0870 h1        1 MOL      0.082170
     48 H21         3.5000   -4.7560   -3.6550 hc        1 MOL      0.082466
     49 H22         4.7580   -3.5230   -4.0110 hc        1 MOL      0.082466
     50 N4          6.2990   -2.6910   -0.8560 n         1 MOL     -0.193703
     51 C17         7.5990   -2.1470   -0.5350 c3        1 MOL     -0.154802
     52 C18         7.9710   -0.7890   -1.0750 c         1 MOL      0.510478
     53 O9          9.1150   -0.5240   -1.1720 o         1 MOL     -0.607060
     54 H23         5.5610   -2.5100   -0.1870 hn        1 MOL      0.238887
     55 H24         8.3590   -2.8950   -0.7450 h1        1 MOL      0.094738
     56 H25         7.5990   -2.0950    0.5520 h1        1 MOL      0.094738
     57 N5          6.9990    0.0600   -1.4210 n         1 MOL     -0.027707
     58 C19         7.2530    1.4260   -1.8410 c3        1 MOL     -0.096474
     59 C20         7.0520    2.4350   -0.7860 c         1 MOL      0.452885
     60 O10         7.0220    3.6430   -1.0190 o         1 MOL     -0.526091
     61 C21         6.2500    1.8020   -3.0150 c3        1 MOL     -0.057213
     62 C22         4.7520    1.7300   -2.7200 c         1 MOL      0.813401
     63 O11         4.3810    1.5220   -1.5710 o         1 MOL     -0.739694
     64 O12         3.9850    2.1210   -3.6660 o         1 MOL     -0.739694
     65 H26         6.0480   -0.1890   -1.1760 hn        1 MOL     -0.063265
     66 H27         8.2580    1.5250   -2.2570 h1        1 MOL      0.109174
     67 H28         6.4660    1.0980   -3.8110 hc        1 MOL      0.007391
     68 H29         6.4450    2.7990   -3.4010 hc        1 MOL      0.007391
     69 N6          6.8990    1.9140    0.4780 n         1 MOL     -0.300819
     70 C23         7.0120    2.8180    1.6630 c3        1 MOL     -0.226035
     71 C24         5.7740    3.6540    1.9850 c         1 MOL      0.658819
     72 O13         5.8470    4.4640    2.8870 o         1 MOL     -0.600756
     73 H30         6.8980    0.9290    0.7070 hn        1 MOL      0.287803
     74 H31         7.8480    3.4630    1.3990 h1        1 MOL      0.100876
     75 H32         7.2410    2.1830    2.5190 h1        1 MOL      0.100876
     76 N7          4.7560    3.4970    1.1360 n         1 MOL     -0.515512
     77 C25         3.3930    4.0790    1.2300 c3        1 MOL      0.052091
     78 C26         2.2030    3.1050    1.1620 c         1 MOL      0.792126
     79 O14         2.3080    2.0640    0.4810 o         1 MOL     -0.771369
     80 C27         3.2900    5.1520    0.1480 c3        1 MOL     -0.346648
     81 C28         4.0800    6.4380    0.5720 c3        1 MOL     -0.206957
     82 C29         3.8310    7.6560   -0.2500 c         1 MOL      0.648552
     83 N8          4.5460    7.7260   -1.3490 n         1 MOL     -0.787111
     84 O15         3.1580    8.6500    0.1540 o         1 MOL     -0.590457
     85 H33         4.8850    2.8210    0.3960 hn        1 MOL      0.405381
     86 H34         3.2680    4.5750    2.1990 h1        1 MOL      0.046885
     87 H35         2.2470    5.4410    0.0490 hc        1 MOL      0.168815
     88 H36         3.6270    4.7570   -0.8200 hc        1 MOL      0.168815
     89 H37         5.1440    6.1910    0.5060 hc        1 MOL      0.104045
     90 H38         3.7870    6.7130    1.5840 hc        1 MOL      0.104045
     91 H39         5.2780    7.0600   -1.5920 hn        1 MOL      0.354752
     92 H40         4.5920    8.5870   -1.8710 hn        1 MOL      0.354752
     93 N9          1.0790    3.4510    1.8300 n         1 MOL     -0.676761
     94 C30        -0.0590    2.4780    1.9460 c3        1 MOL      0.266779
     95 C31        -1.1800    2.9610    0.9980 c         1 MOL      0.444751
     96 O16        -1.7060    4.0300    1.2300 o         1 MOL     -0.573962
     97 C32        -0.5550    2.4130    3.3740 c3        1 MOL      0.318606
     98 C33        -1.6280    1.2940    3.6140 c3        1 MOL     -0.482100
     99 C34         0.5260    2.0120    4.3650 c3        1 MOL     -0.482100
    100 H41         1.0750    4.3690    2.2300 hn        1 MOL      0.315993
    101 H42         0.2060    1.4380    1.7210 h1        1 MOL      0.124522
    102 H43        -1.0490    3.3590    3.5670 hc        1 MOL     -0.054113
    103 H44        -1.3870    0.2940    3.2510 hc        1 MOL      0.103050
    104 H45        -1.8280    1.2920    4.6830 hc        1 MOL      0.103050
    105 H46        -2.4490    1.5740    2.9460 hc        1 MOL      0.103050
    106 H47         1.3860    2.6660    4.2110 hc        1 MOL      0.103050
    107 H48         0.2820    2.0810    5.4160 hc        1 MOL      0.103050
    108 H49         0.9020    1.0210    4.0970 hc        1 MOL      0.103050
    109 N10        -1.6190    2.1650    0.0040 n         1 MOL     -0.117814
    110 C35        -2.9040    2.3910   -0.7200 c3        1 MOL     -0.158254
    111 C36        -4.2310    2.1020    0.0250 c         1 MOL      0.382989
    112 O17        -4.3030    1.3140    0.9420 o         1 MOL     -0.278346
    113 C37        -2.8640    1.5060   -2.0070 c3        1 MOL     -0.163152
    114 C38        -3.8710    1.8010   -3.1210 c         1 MOL      0.520747
    115 N11        -3.3970    2.3800   -4.2470 n         1 MOL     -0.690671
    116 O18        -5.0210    1.4520   -2.9750 o         1 MOL     -0.471616
    117 H50        -1.0070    1.4270   -0.3270 hn        1 MOL      0.157531
    118 H51        -2.8650    3.4070   -1.1230 h1        1 MOL      0.066594
    119 H52        -3.0040    0.4830   -1.6510 hc        1 MOL      0.095345
    120 H53        -1.8740    1.5200   -2.4770 hc        1 MOL      0.095345
    121 H54        -2.4400    2.6920   -4.3550 hn        1 MOL      0.345403
    122 H55        -4.0960    2.5400   -4.9570 hn        1 MOL      0.345403
    123 N12        -5.3720    2.5760   -0.4930 n         1 MOL     -0.408416
    124 C39        -6.6740    2.1890   -0.0260 c3        1 MOL      0.059123
    125 C40        -6.8420    0.6410    0.0600 c         1 MOL      0.668563
    126 O19        -7.3070    0.0550    1.0600 o         1 MOL     -0.573306
    127 C41        -7.7910    2.7770   -0.9990 c3        1 MOL     -0.038404
    128 C42        -9.1770    2.2020   -0.7240 ca        1 MOL     -0.061548
    129 C43        -9.9110    2.5260    0.4920 ca        1 MOL     -0.152691
    130 C44        -9.8300    1.3980   -1.6650 ca        1 MOL     -0.152691
    131 C45       -11.2400    2.0760    0.6750 ca        1 MOL     -0.196691
    132 C46       -11.1330    0.9540   -1.4350 ca        1 MOL     -0.196691
    133 C47       -11.8700    1.2710   -0.2690 ca        1 MOL      0.263959
    134 O20       -13.0650    0.6810   -0.0480 oh        1 MOL     -0.478906
    135 H56        -5.2300    3.1810   -1.2840 hn        1 MOL      0.255696
    136 H57        -6.7890    2.6120    0.9760 h1        1 MOL      0.035716
    137 H58        -7.4380    2.6350   -2.0200 hc        1 MOL      0.044064
    138 H59        -7.7800    3.8660   -0.8910 hc        1 MOL      0.044064
    139 H60        -9.4100    3.1850    1.1820 ha        1 MOL      0.127792
    140 H61        -9.3550    1.0670   -2.5770 ha        1 MOL      0.127792
    141 H62       -11.8480    2.3060    1.5330 ha        1 MOL      0.120670
    142 H63       -11.5470    0.2470   -2.1430 ha        1 MOL      0.120670
    143 H64       -13.5510    0.3910   -0.8190 ho        1 MOL      0.358796
    144 N13        -6.4130   -0.0580   -0.9800 n         1 MOL     -0.257036
    145 C48        -6.6350   -1.5360   -1.0480 c3        1 MOL     -0.125412
    146 C49        -5.8210   -2.2790    0.0700 c         1 MOL      0.484923
    147 O21        -6.3060   -3.1580    0.7450 o         1 MOL     -0.539309
    148 C50        -6.2800   -1.9480   -2.4270 c3        1 MOL      0.133739
    149 C51        -4.7750   -2.1280   -2.7890 c3        1 MOL     -0.018758
    150 C52        -4.6320   -2.5500   -4.2620 c         1 MOL      0.624535
    151 O22        -5.2220   -3.5910   -4.7200 o         1 MOL     -0.713291
    152 O23        -4.1110   -1.6910   -5.0090 o         1 MOL     -0.713291
    153 H65        -6.1460    0.4100   -1.8290 hn        1 MOL      0.161718
    154 H66        -7.7040   -1.6850   -0.8940 h1        1 MOL      0.066939
    155 H67        -6.7910   -1.3040   -3.1410 hc        1 MOL     -0.022454
    156 H68        -6.7610   -2.9110   -2.5860 hc        1 MOL     -0.022454
    157 H69        -4.3680   -2.8830   -2.1190 hc        1 MOL     -0.067191
    158 H70        -4.2680   -1.1790   -2.5760 hc        1 MOL     -0.067191
    159 N14        -4.6390   -1.7250    0.4570 n         1 MOL     -0.084806
    160 C53        -3.8560   -2.1500    1.6030 c3        1 MOL     -0.295975
    161 C54        -4.4900   -1.7720    2.9260 c         1 MOL      0.563777
    162 O24        -4.5780   -2.6420    3.8500 o         1 MOL     -0.582233
    163 C55        -2.4640   -1.6570    1.3340 c3        1 MOL     -0.020478
    164 C56        -1.7950   -1.7930   -0.1050 c3        1 MOL     -0.167811
    165 C57        -0.3480   -1.2740   -0.2420 c         1 MOL      0.744646
    166 O25         0.5610   -2.1070   -0.4660 o         1 MOL     -0.755259
    167 O26        -0.0830   -0.0160   -0.1820 o         1 MOL     -0.755259
    168 H71        -4.4220   -0.8500   -0.0090 hn        1 MOL      0.287582
    169 H72        -3.8140   -3.2400    1.5520 h1        1 MOL      0.124594
    170 H73        -1.7640   -2.1310    2.0190 hc        1 MOL      0.079580
    171 H74        -2.4080   -0.6120    1.6510 hc        1 MOL      0.079580
    172 H75        -2.4070   -1.3220   -0.8760 hc        1 MOL      0.055419
    173 H76        -1.8610   -2.8600   -0.3400 hc        1 MOL      0.055419
    174 N15        -5.0460   -0.5770    3.0560 n         1 MOL     -0.053869
    175 C58        -5.8720   -0.1440    4.1750 c3        1 MOL     -0.435276
    176 H77        -6.9240   -0.2110    3.8960 h1        1 MOL      0.135670
    177 H78        -5.6830   -0.7840    5.0360 h1        1 MOL      0.135670
    178 H79        -5.6300    0.8890    4.4280 h1        1 MOL      0.135670
    179 H80        -5.0690    0.0770    2.2820 hn        1 MOL      0.029039
    180 Ca1         2.2510    0.1370   -1.2140 Ca        1 MOL      1.753218
    181 O27         0.9220   -0.3960   -3.3290 oh        1 MOL     -0.936691
    182 H81         1.2880   -1.2160   -3.6510 ho        1 MOL      0.423087
    183 H82        -0.0010   -0.4250   -3.5630 ho        1 MOL      0.423087
    184 O28         1.7520    2.6570   -2.2590 oh        1 MOL     -0.936691
    185 H83         1.0370    2.9310   -2.8450 ho        1 MOL      0.423087
    186 H84         2.4840    2.4660   -2.8390 ho        1 MOL      0.423087
@<TRIPOS>BOND
     1    1    2 1   
     2    1    4 1   
     3    1    5 1   
     4    1    6 1   
     5    2    3 2   
     6    2    7 1   
     7    7    8 1   
     8    7   15 1   
     9    8    9 1   
    10    8   11 1   
    11    8   16 1   
    12    9   10 2   
    13    9   19 1   
    14   11   12 1   
    15   11   17 1   
    16   11   18 1   
    17   12   13 1   
    18   12   14 1   
    19   19   20 1   
    20   19   27 1   
    21   20   21 1   
    22   20   23 1   
    23   20   28 1   
    24   21   22 2   
    25   21   38 1   
    26   23   24 1   
    27   23   25 1   
    28   23   29 1   
    29   24   26 1   
    30   24   30 1   
    31   24   31 1   
    32   25   32 1   
    33   25   33 1   
    34   25   34 1   
    35   26   35 1   
    36   26   36 1   
    37   26   37 1   
    38   38   39 1   
    39   38   46 1   
    40   39   40 1   
    41   39   42 1   
    42   39   47 1   
    43   40   41 2   
    44   40   50 1   
    45   42   43 1   
    46   42   48 1   
    47   42   49 1   
    48   43   44 1   
    49   43   45 1   
    50   50   51 1   
    51   50   54 1   
    52   51   52 1   
    53   51   55 1   
    54   51   56 1   
    55   52   53 2   
    56   52   57 1   
    57   57   58 1   
    58   57   65 1   
    59   58   59 1   
    60   58   61 1   
    61   58   66 1   
    62   59   60 2   
    63   59   69 1   
    64   61   62 1   
    65   61   67 1   
    66   61   68 1   
    67   62   63 1   
    68   62   64 1   
    69   69   70 1   
    70   69   73 1   
    71   70   71 1   
    72   70   74 1   
    73   70   75 1   
    74   71   72 2   
    75   71   76 1   
    76   76   77 1   
    77   76   85 1   
    78   77   78 1   
    79   77   80 1   
    80   77   86 1   
    81   78   79 2   
    82   78   93 1   
    83   80   81 1   
    84   80   87 1   
    85   80   88 1   
    86   81   82 1   
    87   81   89 1   
    88   81   90 1   
    89   82   83 1   
    90   82   84 2   
    91   83   91 1   
    92   83   92 1   
    93   93   94 1   
    94   93  100 1   
    95   94   95 1   
    96   94   97 1   
    97   94  101 1   
    98   95   96 2   
    99   95  109 1   
   100   97   98 1   
   101   97   99 1   
   102   97  102 1   
   103   98  103 1   
   104   98  104 1   
   105   98  105 1   
   106   99  106 1   
   107   99  107 1   
   108   99  108 1   
   109  109  110 1   
   110  109  117 1   
   111  110  111 1   
   112  110  113 1   
   113  110  118 1   
   114  111  112 2   
   115  111  123 1   
   116  113  114 1   
   117  113  119 1   
   118  113  120 1   
   119  114  115 1   
   120  114  116 2   
   121  115  121 1   
   122  115  122 1   
   123  123  124 1   
   124  123  135 1   
   125  124  125 1   
   126  124  127 1   
   127  124  136 1   
   128  125  126 2   
   129  125  144 1   
   130  127  128 1   
   131  127  137 1   
   132  127  138 1   
   133  128  129 ar  
   134  128  130 ar  
   135  129  131 ar  
   136  129  139 1   
   137  130  132 ar  
   138  130  140 1   
   139  131  133 ar  
   140  131  141 1   
   141  132  133 ar  
   142  132  142 1   
   143  133  134 1   
   144  134  143 1   
   145  144  145 1   
   146  144  153 1   
   147  145  146 1   
   148  145  148 1   
   149  145  154 1   
   150  146  147 2   
   151  146  159 1   
   152  148  149 1   
   153  148  155 1   
   154  148  156 1   
   155  149  150 1   
   156  149  157 1   
   157  149  158 1   
   158  150  151 1   
   159  150  152 1   
   160  159  160 1   
   161  159  168 1   
   162  160  161 1   
   163  160  163 1   
   164  160  169 1   
   165  161  162 2   
   166  161  174 1   
   167  163  164 1   
   168  163  170 1   
   169  163  171 1   
   170  164  165 1   
   171  164  172 1   
   172  164  173 1   
   173  165  166 1   
   174  165  167 1   
   175  174  175 1   
   176  174  179 1   
   177  175  176 1   
   178  175  177 1   
   179  175  178 1   
   180  181  182 1   
   181  181  183 1   
   182  184  185 1   
   183  184  186 1   
@<TRIPOS>SUBSTRUCTURE
     1 MOL         1 TEMP              0 ****  ****    0 ROOT
