@<TRIPOS>MOLECULE
MOL
  186   183     1     0     0
SMALL
resp


@<TRIPOS>ATOM
      1 C1          0.7510   -2.3760    6.3090 c3        1 MOL     -0.224513
      2 C2          0.8680   -2.2560    4.7610 c         1 MOL      0.774502
      3 O1         -0.0970   -2.5560    4.0730 o         1 MOL     -0.563549
      4 H1         -0.2020   -2.8380    6.5660 hc        1 MOL      0.038222
      5 H2          1.5660   -2.9930    6.6890 hc        1 MOL      0.038222
      6 H3          0.8060   -1.3840    6.7570 hc        1 MOL      0.038222
      7 N1          2.0690   -1.8020    4.2690 n         1 MOL     -0.749881
      8 C3          2.4100   -1.8270    2.8180 c3        1 MOL      0.369187
      9 C4          2.6940   -3.2910    2.4320 c         1 MOL      0.536635
     10 O2          3.3460   -4.0700    3.1140 o         1 MOL     -0.618630
     11 C5          3.6150   -0.8890    2.6490 c3        1 MOL     -0.527792
     12 C6          4.3090   -1.0550    1.2760 c         1 MOL      0.784466
     13 O3          5.5130   -0.6420    1.1870 o         1 MOL     -0.650351
     14 O4          3.7010   -1.3900    0.2130 o         1 MOL     -0.650351
     15 H4          2.8040   -1.5580    4.9180 hn        1 MOL      0.340944
     16 H5          1.5340   -1.4010    2.3350 h1        1 MOL     -0.000379
     17 H6          4.3810   -1.0010    3.4190 hc        1 MOL      0.130800
     18 H7          3.1590    0.1010    2.7490 hc        1 MOL      0.130800
     19 N2          2.2620   -3.6830    1.2450 n         1 MOL     -0.087168
     20 C7          2.3750   -5.0020    0.7020 c3        1 MOL     -0.140596
     21 C8          3.1930   -5.0490   -0.6060 c         1 MOL      0.579265
     22 O5          3.6030   -6.2000   -0.8540 o         1 MOL     -0.609973
     23 C9          0.9190   -5.5110    0.5220 c3        1 MOL      0.292844
     24 C10         0.3520   -6.0110    1.8660 c3        1 MOL      0.039944
     25 C11         0.6440   -6.5230   -0.6410 c3        1 MOL     -0.452484
     26 C12        -1.1880   -6.1310    1.7670 c3        1 MOL     -0.048877
     27 H8          1.6340   -3.0360    0.7980 hn        1 MOL     -0.061431
     28 H9          2.9820   -5.5880    1.3910 h1        1 MOL      0.082455
     29 H10         0.3210   -4.6500    0.2170 hc        1 MOL      0.041621
     30 H11         0.6280   -5.3180    2.6700 hc        1 MOL     -0.032748
     31 H12         0.7920   -6.9800    2.0780 hc        1 MOL     -0.032748
     32 H13        -0.3780   -6.4010   -0.9920 hc        1 MOL      0.108088
     33 H14         1.1210   -6.1890   -1.5650 hc        1 MOL      0.108088
     34 H15         0.9410   -7.5370   -0.3980 hc        1 MOL      0.108088
     35 H16        -1.3280   -7.0050    1.1310 hc        1 MOL     -0.007647
     36 H17        -1.6940   -6.2910    2.7200 hc        1 MOL     -0.007647
     37 H18        -1.6240   -5.2250    1.3380 hc        1 MOL     -0.007647
     38 N3          3.5530   -3.9390   -1.2880 n         1 MOL     -0.431321
     39 C13         4.3760   -3.8720   -2.5000 c3        1 MOL      0.147981
     40 C14         5.7150   -3.1010   -2.2460 c         1 MOL      0.334818
     41 O6          6.5480   -2.9200   -3.1540 o         1 MOL     -0.553317
     42 C15         3.5680   -3.4120   -3.7540 c3        1 MOL     -0.197233
     43 C16         2.9100   -2.0770   -3.5900 c         1 MOL      0.830785
     44 O7          1.8720   -1.8370   -4.2830 o         1 MOL     -0.730911
     45 O8          3.3000   -1.1730   -2.8650 o         1 MOL     -0.730911
     46 H19         3.3080   -2.9980   -0.9970 hn        1 MOL      0.287071
     47 H20         4.6670   -4.8760   -2.8150 h1        1 MOL      0.051230
     48 H21         2.8010   -4.1360   -4.0240 hc        1 MOL      0.044842
     49 H22         4.2760   -3.2710   -4.5660 hc        1 MOL      0.044842
     50 N4          5.9900   -2.6040   -1.0660 n         1 MOL     -0.121857
     51 C17         7.4170   -2.2050   -0.7410 c3        1 MOL     -0.375797
     52 C18         7.8950   -0.8080   -1.1190 c         1 MOL      0.615385
     53 O9          9.0770   -0.5480   -1.2230 o         1 MOL     -0.622486
     54 H23         5.1850   -2.5910   -0.4650 hn        1 MOL      0.121227
     55 H24         7.9450   -3.0210   -1.2420 h1        1 MOL      0.151319
     56 H25         7.5890   -2.3340    0.3160 h1        1 MOL      0.151319
     57 N5          6.9400    0.0710   -1.3280 n         1 MOL     -0.220239
     58 C19         7.1720    1.5500   -1.6380 c3        1 MOL     -0.054850
     59 C20         7.2760    2.4390   -0.3410 c         1 MOL      0.426741
     60 O10         7.8550    3.5640   -0.3490 o         1 MOL     -0.547412
     61 C21         6.0810    2.1820   -2.5070 c3        1 MOL     -0.162783
     62 C22         4.6690    1.8680   -2.0860 c         1 MOL      0.758116
     63 O11         3.6480    2.1480   -2.7570 o         1 MOL     -0.737956
     64 O12         4.4220    1.3770   -0.9440 o         1 MOL     -0.737956
     65 H26         6.0190   -0.1920   -0.9900 hn        1 MOL      0.191292
     66 H27         8.1290    1.7170   -2.1180 h1        1 MOL      0.115984
     67 H28         6.1740    1.9810   -3.5830 hc        1 MOL      0.061072
     68 H29         6.2500    3.2630   -2.5080 hc        1 MOL      0.061072
     69 N6          6.9030    1.8350    0.8930 n         1 MOL     -0.279608
     70 C23         6.8520    2.5320    2.2140 c3        1 MOL      0.045922
     71 C24         5.6010    3.4060    2.3320 c         1 MOL      0.454784
     72 O13         5.6010    4.3460    3.1550 o         1 MOL     -0.604366
     73 H30         6.6210    0.8720    0.8550 hn        1 MOL      0.213088
     74 H31         7.7350    3.1470    2.3920 h1        1 MOL      0.034586
     75 H32         6.8630    1.7950    3.0140 h1        1 MOL      0.034586
     76 N7          4.5860    3.1430    1.5210 n         1 MOL     -0.219173
     77 C25         3.2640    3.8930    1.5860 c3        1 MOL      0.173909
     78 C26         2.0540    2.8810    1.5430 c         1 MOL      0.274779
     79 O14         2.2340    1.7370    1.1630 o         1 MOL     -0.555848
     80 C27         3.1500    4.7760    0.3380 c3        1 MOL     -0.009816
     81 C28         4.1540    5.9400    0.1870 c3        1 MOL     -0.426850
     82 C29         4.1830    6.7060   -1.1150 c         1 MOL      0.843417
     83 N8          5.0850    7.7250   -1.2600 n         1 MOL     -0.945222
     84 O15         3.4600    6.5530   -2.0810 o         1 MOL     -0.563770
     85 H33         4.6530    2.3060    0.9590 hn        1 MOL      0.200313
     86 H34         3.2170    4.4560    2.5220 h1        1 MOL      0.015477
     87 H35         2.1410    5.1740    0.2450 hc        1 MOL      0.034188
     88 H36         3.3170    4.1330   -0.5350 hc        1 MOL      0.034188
     89 H37         5.1680    5.5320    0.2170 hc        1 MOL      0.115923
     90 H38         4.0870    6.5490    1.0860 hc        1 MOL      0.115923
     91 H39         5.6310    8.0520   -0.4780 hn        1 MOL      0.378781
     92 H40         5.3130    8.1150   -2.1600 hn        1 MOL      0.378781
     93 N9          0.9760    3.2870    2.1740 n         1 MOL     -0.184469
     94 C30        -0.2510    2.5270    2.3580 c3        1 MOL     -0.003073
     95 C31        -1.3750    2.9850    1.4400 c         1 MOL      0.242673
     96 O16        -1.8480    4.0890    1.6250 o         1 MOL     -0.518252
     97 C32        -0.5170    2.5450    3.8320 c3        1 MOL      0.200156
     98 C33        -1.8110    1.7720    4.0380 c3        1 MOL     -0.287036
     99 C34         0.6130    1.9080    4.6790 c3        1 MOL     -0.287036
    100 H41         0.8950    4.1900    2.6070 hn        1 MOL      0.213312
    101 H42        -0.0580    1.4660    2.1830 h1        1 MOL      0.197171
    102 H43        -0.6260    3.5750    4.1710 hc        1 MOL     -0.019056
    103 H44        -2.1080    1.8040    5.0910 hc        1 MOL      0.067495
    104 H45        -2.5950    2.3800    3.5970 hc        1 MOL      0.067495
    105 H46        -1.7510    0.7360    3.7050 hc        1 MOL      0.067495
    106 H47         1.6030    2.3190    4.4970 hc        1 MOL      0.067495
    107 H48         0.3560    2.0810    5.7200 hc        1 MOL      0.067495
    108 H49         0.6480    0.8410    4.4450 hc        1 MOL      0.067495
    109 N10        -1.7540    2.1780    0.4070 n         1 MOL     -0.012656
    110 C35        -2.8320    2.5120   -0.6030 c3        1 MOL     -0.027993
    111 C36        -4.2110    2.0970   -0.1030 c         1 MOL      0.475866
    112 O17        -4.2340    1.2910    0.8520 o         1 MOL     -0.350274
    113 C37        -2.2880    1.7320   -1.7930 c3        1 MOL     -0.435813
    114 C38        -3.1410    2.0920   -3.0230 c         1 MOL      0.764880
    115 N11        -2.7950    3.0170   -3.8640 n         1 MOL     -0.777162
    116 O18        -4.1630    1.4970   -3.2410 o         1 MOL     -0.548334
    117 H50        -1.2830    1.2740    0.3500 hn        1 MOL      0.121232
    118 H51        -2.8890    3.5850   -0.8090 h1        1 MOL      0.058600
    119 H52        -2.2740    0.6660   -1.6010 hc        1 MOL      0.133089
    120 H53        -1.2370    1.9930   -1.9730 hc        1 MOL      0.133089
    121 H54        -1.9290    3.5160   -3.7000 hn        1 MOL      0.357978
    122 H55        -3.4150    3.1680   -4.6390 hn        1 MOL      0.357978
    123 N12        -5.3290    2.5040   -0.6810 n         1 MOL     -0.538237
    124 C39        -6.6370    2.0230   -0.2610 c3        1 MOL      0.310518
    125 C40        -6.8130    0.5900   -0.1170 c         1 MOL      0.675732
    126 O19        -7.3510    0.0640    0.8380 o         1 MOL     -0.567301
    127 C41        -7.7860    2.5670   -1.2040 c3        1 MOL     -0.016479
    128 C42        -9.3060    2.3450   -0.9120 ca        1 MOL      0.235640
    129 C43        -9.7170    2.5480    0.4060 ca        1 MOL     -0.410540
    130 C44       -10.1650    1.8100   -1.8270 ca        1 MOL     -0.410540
    131 C45       -11.0190    2.1820    0.8400 ca        1 MOL      0.032008
    132 C46       -11.4760    1.4380   -1.4000 ca        1 MOL      0.032008
    133 C47       -11.9610    1.6580   -0.0890 ca        1 MOL      0.034223
    134 O20       -13.1330    1.1270    0.4000 oh        1 MOL     -0.445251
    135 H56        -5.1710    2.9840   -1.5600 hn        1 MOL      0.258287
    136 H57        -6.8710    2.4930    0.7010 h1        1 MOL     -0.018031
    137 H58        -7.5200    2.2130   -2.1990 hc        1 MOL     -0.009837
    138 H59        -7.6890    3.6460   -1.2240 hc        1 MOL     -0.009837
    139 H60        -9.0290    2.9210    1.1560 ha        1 MOL      0.181260
    140 H61        -9.7640    1.5920   -2.8140 ha        1 MOL      0.181260
    141 H62       -11.3170    2.2800    1.8680 ha        1 MOL      0.080547
    142 H63       -12.1800    0.9630   -2.0570 ha        1 MOL      0.080547
    143 H64       -13.7430    0.7340   -0.2270 ho        1 MOL      0.364026
    144 N13        -6.3410   -0.1700   -1.1200 n         1 MOL     -0.575706
    145 C48        -6.5200   -1.5920   -1.2460 c3        1 MOL      0.064535
    146 C49        -5.5920   -2.3040   -0.2110 c         1 MOL      0.427627
    147 O21        -5.8280   -3.4400    0.1930 o         1 MOL     -0.537498
    148 C50        -6.1590   -1.9650   -2.6610 c3        1 MOL     -0.134831
    149 C51        -4.6320   -1.8740   -2.9600 c3        1 MOL     -0.003893
    150 C52        -4.2830   -2.4900   -4.3270 c         1 MOL      0.632010
    151 O22        -3.2390   -2.0380   -4.8690 o         1 MOL     -0.715191
    152 O23        -4.9510   -3.4490   -4.8010 o         1 MOL     -0.715191
    153 H65        -5.8330    0.3540   -1.8190 hn        1 MOL      0.326673
    154 H66        -7.5280   -1.9180   -1.0310 h1        1 MOL      0.066972
    155 H67        -6.7330   -1.4690   -3.4380 hc        1 MOL      0.028931
    156 H68        -6.3590   -3.0360   -2.7340 hc        1 MOL      0.028931
    157 H69        -4.1210   -2.4100   -2.1690 hc        1 MOL     -0.001435
    158 H70        -4.3360   -0.8190   -2.9510 hc        1 MOL     -0.001435
    159 N14        -4.5640   -1.6510    0.3770 n         1 MOL     -0.209645
    160 C53        -3.7730   -2.2170    1.4500 c3        1 MOL     -0.050227
    161 C54        -4.4230   -1.8740    2.7900 c         1 MOL      0.478155
    162 O24        -4.3160   -2.6040    3.7320 o         1 MOL     -0.562847
    163 C55        -2.4080   -1.5500    1.3830 c3        1 MOL      0.105177
    164 C56        -1.5830   -2.1610    0.2700 c3        1 MOL      0.023169
    165 C57        -0.2220   -1.4760    0.0080 c         1 MOL      0.702005
    166 O25         0.6270   -2.0570   -0.6860 o         1 MOL     -0.736315
    167 O26         0.0490   -0.3490    0.3220 o         1 MOL     -0.736315
    168 H71        -4.3240   -0.7380    0.0080 hn        1 MOL      0.185998
    169 H72        -3.5730   -3.2840    1.4060 h1        1 MOL      0.098509
    170 H73        -1.9420   -1.3660    2.3530 hc        1 MOL     -0.020154
    171 H74        -2.5670   -0.5260    1.0250 hc        1 MOL     -0.020154
    172 H75        -2.0890   -2.1070   -0.6970 hc        1 MOL      0.010426
    173 H76        -1.4810   -3.2160    0.5320 hc        1 MOL      0.010426
    174 N15        -5.1230   -0.7320    2.8130 n         1 MOL      0.003655
    175 C58        -5.7690   -0.1880    3.9920 c3        1 MOL     -0.295097
    176 H77        -6.6900   -0.7360    4.1870 h1        1 MOL      0.093960
    177 H78        -5.1010   -0.2830    4.8490 h1        1 MOL      0.093960
    178 H79        -6.0000    0.8640    3.8270 h1        1 MOL      0.093960
    179 H80        -5.0650   -0.1170    2.0220 hn        1 MOL     -0.053950
    180 Ca1         2.0930    0.3070   -1.1260 Ca        1 MOL      1.771540
    181 O27         0.7170    0.3330   -3.3880 oh        1 MOL     -0.846664
    182 H81        -0.1510    0.3210   -3.7830 ho        1 MOL      0.396179
    183 H82         1.1790   -0.4200   -3.7720 ho        1 MOL      0.396179
    184 O28         1.0710    2.8290   -1.5770 oh        1 MOL     -0.846664
    185 H83         0.2440    3.1120   -1.9810 ho        1 MOL      0.396179
    186 H84         1.5980    3.6320   -1.5380 ho        1 MOL      0.396179
@<TRIPOS>BOND
     1    1    2 1   
     2    1    4 1   
     3    1    5 1   
     4    1    6 1   
     5    2    3 2   
     6    2    7 1   
     7    7    8 1   
     8    7   15 1   
     9    8    9 1   
    10    8   11 1   
    11    8   16 1   
    12    9   10 2   
    13    9   19 1   
    14   11   12 1   
    15   11   17 1   
    16   11   18 1   
    17   12   13 1   
    18   12   14 1   
    19   19   20 1   
    20   19   27 1   
    21   20   21 1   
    22   20   23 1   
    23   20   28 1   
    24   21   22 2   
    25   21   38 1   
    26   23   24 1   
    27   23   25 1   
    28   23   29 1   
    29   24   26 1   
    30   24   30 1   
    31   24   31 1   
    32   25   32 1   
    33   25   33 1   
    34   25   34 1   
    35   26   35 1   
    36   26   36 1   
    37   26   37 1   
    38   38   39 1   
    39   38   46 1   
    40   39   40 1   
    41   39   42 1   
    42   39   47 1   
    43   40   41 2   
    44   40   50 1   
    45   42   43 1   
    46   42   48 1   
    47   42   49 1   
    48   43   44 1   
    49   43   45 1   
    50   50   51 1   
    51   50   54 1   
    52   51   52 1   
    53   51   55 1   
    54   51   56 1   
    55   52   53 2   
    56   52   57 1   
    57   57   58 1   
    58   57   65 1   
    59   58   59 1   
    60   58   61 1   
    61   58   66 1   
    62   59   60 2   
    63   59   69 1   
    64   61   62 1   
    65   61   67 1   
    66   61   68 1   
    67   62   63 1   
    68   62   64 1   
    69   69   70 1   
    70   69   73 1   
    71   70   71 1   
    72   70   74 1   
    73   70   75 1   
    74   71   72 2   
    75   71   76 1   
    76   76   77 1   
    77   76   85 1   
    78   77   78 1   
    79   77   80 1   
    80   77   86 1   
    81   78   79 2   
    82   78   93 1   
    83   80   81 1   
    84   80   87 1   
    85   80   88 1   
    86   81   82 1   
    87   81   89 1   
    88   81   90 1   
    89   82   83 1   
    90   82   84 2   
    91   83   91 1   
    92   83   92 1   
    93   93   94 1   
    94   93  100 1   
    95   94   95 1   
    96   94   97 1   
    97   94  101 1   
    98   95   96 2   
    99   95  109 1   
   100   97   98 1   
   101   97   99 1   
   102   97  102 1   
   103   98  103 1   
   104   98  104 1   
   105   98  105 1   
   106   99  106 1   
   107   99  107 1   
   108   99  108 1   
   109  109  110 1   
   110  109  117 1   
   111  110  111 1   
   112  110  113 1   
   113  110  118 1   
   114  111  112 2   
   115  111  123 1   
   116  113  114 1   
   117  113  119 1   
   118  113  120 1   
   119  114  115 1   
   120  114  116 2   
   121  115  121 1   
   122  115  122 1   
   123  123  124 1   
   124  123  135 1   
   125  124  125 1   
   126  124  127 1   
   127  124  136 1   
   128  125  126 2   
   129  125  144 1   
   130  127  128 1   
   131  127  137 1   
   132  127  138 1   
   133  128  129 ar  
   134  128  130 ar  
   135  129  131 ar  
   136  129  139 1   
   137  130  132 ar  
   138  130  140 1   
   139  131  133 ar  
   140  131  141 1   
   141  132  133 ar  
   142  132  142 1   
   143  133  134 1   
   144  134  143 1   
   145  144  145 1   
   146  144  153 1   
   147  145  146 1   
   148  145  148 1   
   149  145  154 1   
   150  146  147 2   
   151  146  159 1   
   152  148  149 1   
   153  148  155 1   
   154  148  156 1   
   155  149  150 1   
   156  149  157 1   
   157  149  158 1   
   158  150  151 1   
   159  150  152 1   
   160  159  160 1   
   161  159  168 1   
   162  160  161 1   
   163  160  163 1   
   164  160  169 1   
   165  161  162 2   
   166  161  174 1   
   167  163  164 1   
   168  163  170 1   
   169  163  171 1   
   170  164  165 1   
   171  164  172 1   
   172  164  173 1   
   173  165  166 1   
   174  165  167 1   
   175  174  175 1   
   176  174  179 1   
   177  175  176 1   
   178  175  177 1   
   179  175  178 1   
   180  181  182 1   
   181  181  183 1   
   182  184  185 1   
   183  184  186 1   
@<TRIPOS>SUBSTRUCTURE
     1 MOL         1 TEMP              0 ****  ****    0 ROOT
