@<TRIPOS>MOLECULE
MOL
  183   181     1     0     0
SMALL
resp


@<TRIPOS>ATOM
      1 C1         -0.5710    2.1420    6.2470 c3        1 MOL     -0.360730
      2 C2         -0.9430    2.2100    4.7630 c         1 MOL      0.687511
      3 O1         -0.2080    2.7930    3.9890 o         1 MOL     -0.517378
      4 H1         -0.4150    3.1510    6.6280 hc        1 MOL      0.083315
      5 H2         -1.3780    1.6640    6.8020 hc        1 MOL      0.083315
      6 H3          0.3450    1.5650    6.3670 hc        1 MOL      0.083315
      7 N1         -2.1160    1.6920    4.3770 n         1 MOL     -0.562449
      8 C3         -2.7400    1.6760    3.0710 c3        1 MOL      0.023320
      9 C4         -3.0160    3.0890    2.4910 c         1 MOL      0.672061
     10 O2         -3.6200    3.9800    3.0780 o         1 MOL     -0.618636
     11 C5         -3.9640    0.8210    3.1280 c3        1 MOL     -0.061338
     12 C6         -4.4870    0.3910    1.7450 c         1 MOL      0.772488
     13 O3         -5.4520   -0.3590    1.6910 o         1 MOL     -0.689861
     14 O4         -3.8890    0.7770    0.6960 o         1 MOL     -0.689861
     15 H4         -2.6080    1.1210    5.0590 hn        1 MOL      0.303932
     16 H5         -1.9500    1.2560    2.4610 h1        1 MOL      0.071084
     17 H6         -4.7250    1.3890    3.6570 hc        1 MOL      0.001045
     18 H7         -3.8280   -0.0670    3.7540 hc        1 MOL      0.001045
     19 N2         -2.5060    3.4000    1.2580 n         1 MOL     -0.399786
     20 C7         -2.5800    4.7920    0.6820 c3        1 MOL      0.185719
     21 C8         -3.7260    4.8960   -0.3540 c         1 MOL      0.316679
     22 O5         -4.2630    5.9990   -0.6080 o         1 MOL     -0.546687
     23 C9         -1.1220    5.2660    0.2950 c3        1 MOL      0.024752
     24 C10        -0.1520    5.3390    1.5290 c3        1 MOL     -0.025982
     25 C11        -1.1890    6.6710   -0.3520 c3        1 MOL     -0.419209
     26 C12        -0.5060    6.3490    2.6320 c3        1 MOL     -0.120707
     27 H8         -2.0830    2.6540    0.7360 hn        1 MOL      0.152906
     28 H9         -2.8360    5.5600    1.4060 h1        1 MOL      0.074662
     29 H10        -0.7720    4.5410   -0.4440 hc        1 MOL      0.061174
     30 H11         0.8420    5.7390    1.3150 hc        1 MOL      0.033219
     31 H12         0.0470    4.3760    2.0140 hc        1 MOL      0.033219
     32 H13        -0.1660    6.8270   -0.6920 hc        1 MOL      0.103758
     33 H14        -1.7930    6.5930   -1.2590 hc        1 MOL      0.103758
     34 H15        -1.6120    7.4790    0.2410 hc        1 MOL      0.103758
     35 H16        -0.0690    5.9230    3.5410 hc        1 MOL      0.023733
     36 H17        -0.0450    7.3320    2.5060 hc        1 MOL      0.023733
     37 H18        -1.5770    6.4880    2.7900 hc        1 MOL      0.023733
     38 N3         -4.0780    3.7540   -0.9890 n         1 MOL     -0.255954
     39 C13        -5.1250    3.6500   -2.0710 c3        1 MOL      0.366936
     40 C14        -6.3320    2.7270   -1.7220 c         1 MOL      0.334238
     41 O6         -7.2730    2.7010   -2.4940 o         1 MOL     -0.531105
     42 C15        -4.5630    3.3100   -3.4800 c3        1 MOL     -0.429605
     43 C16        -3.7500    2.0350   -3.6740 c         1 MOL      0.852898
     44 O7         -3.2500    1.7660   -4.8140 o         1 MOL     -0.714305
     45 O8         -3.7540    1.2510   -2.7290 o         1 MOL     -0.714305
     46 H19        -3.5520    2.9000   -0.8260 hn        1 MOL      0.176337
     47 H20        -5.6570    4.6060   -2.0990 h1        1 MOL     -0.005125
     48 H21        -4.0190    4.2120   -3.7570 hc        1 MOL      0.074528
     49 H22        -5.3180    3.1950   -4.2610 hc        1 MOL      0.074528
     50 N4         -6.2800    1.9540   -0.6250 n         1 MOL      0.006431
     51 C17        -7.4710    1.5410    0.0470 c3        1 MOL     -0.282534
     52 C18        -8.1390    0.3290   -0.4560 c         1 MOL      0.631915
     53 O9         -9.3430    0.1170   -0.5430 o         1 MOL     -0.619435
     54 H23        -5.4400    2.1380   -0.0860 hn        1 MOL      0.059748
     55 H24        -8.2300    2.3150   -0.0830 h1        1 MOL      0.094558
     56 H25        -7.2130    1.4560    1.1000 h1        1 MOL      0.094558
     57 N5         -7.3140   -0.7240   -0.7700 n         1 MOL     -0.200464
     58 C19        -7.5080   -2.1020   -1.3330 c3        1 MOL     -0.031138
     59 C20        -7.2490   -3.2550   -0.3030 c         1 MOL      0.420431
     60 O10        -7.3570   -4.4590   -0.6210 o         1 MOL     -0.550584
     61 C21        -6.4710   -2.1830   -2.5370 c3        1 MOL     -0.181542
     62 C22        -5.0550   -1.8680   -2.0370 c         1 MOL      0.791211
     63 O11        -4.2450   -1.4750   -2.9080 o         1 MOL     -0.719280
     64 O12        -4.7290   -2.0330   -0.8670 o         1 MOL     -0.719280
     65 H26        -6.3620   -0.6330   -0.4380 hn        1 MOL      0.009445
     66 H27        -8.4350   -2.3360   -1.8580 h1        1 MOL      0.093435
     67 H28        -6.6750   -1.4290   -3.2900 hc        1 MOL      0.055146
     68 H29        -6.4410   -3.1810   -2.9870 hc        1 MOL      0.055146
     69 N6         -6.9380   -2.9020    0.9220 n         1 MOL     -0.338288
     70 C23        -6.7920   -3.9420    1.9740 c3        1 MOL     -0.007841
     71 C24        -5.3510   -4.5780    2.0650 c         1 MOL      0.392680
     72 O13        -5.1860   -5.5950    2.7430 o         1 MOL     -0.589935
     73 H30        -6.6850   -1.9500    1.1470 hn        1 MOL      0.286658
     74 H31        -7.5150   -4.7430    1.8140 h1        1 MOL      0.065011
     75 H32        -7.1410   -3.5130    2.9160 h1        1 MOL      0.065011
     76 N7         -4.3790   -4.1490    1.2750 n         1 MOL     -0.067753
     77 C25        -2.9300   -4.5060    1.3100 c3        1 MOL      0.007757
     78 C26        -1.9600   -3.2890    1.3960 c         1 MOL      0.508093
     79 O14        -2.3020   -2.1920    1.0120 o         1 MOL     -0.570960
     80 C27        -2.6410   -5.5190    0.1580 c3        1 MOL     -0.126430
     81 C28        -2.6630   -4.9710   -1.3360 c3        1 MOL     -0.297466
     82 C29        -1.4940   -4.0730   -1.7110 c         1 MOL      0.601716
     83 N8         -0.2650   -4.5890   -1.8280 n         1 MOL     -0.710848
     84 O15        -1.6390   -2.8790   -1.6240 o         1 MOL     -0.547110
     85 H33        -4.7130   -3.3860    0.7000 hn        1 MOL      0.201846
     86 H34        -2.8380   -4.9890    2.2910 h1        1 MOL      0.047222
     87 H35        -3.3940   -6.2890    0.3150 hc        1 MOL      0.055701
     88 H36        -1.6590   -5.9570    0.3170 hc        1 MOL      0.055701
     89 H37        -3.5300   -4.3280   -1.4510 hc        1 MOL      0.109967
     90 H38        -2.8320   -5.7270   -2.1180 hc        1 MOL      0.109967
     91 H39        -0.0970   -5.5880   -1.7950 hn        1 MOL      0.325240
     92 H40         0.3940   -3.9160   -2.1770 hn        1 MOL      0.325240
     93 N9         -0.6590   -3.5250    1.7190 n         1 MOL     -0.479419
     94 C30         0.4750   -2.5770    1.8510 c3        1 MOL      0.127375
     95 C31         1.6430   -2.9810    1.0010 c         1 MOL      0.306673
     96 O16         2.3590   -3.9110    1.4580 o         1 MOL     -0.526316
     97 C32         0.7930   -2.3020    3.3540 c3        1 MOL      0.104928
     98 C33         2.1200   -1.5710    3.7060 c3        1 MOL     -0.228233
     99 C34        -0.3520   -1.4600    3.9710 c3        1 MOL     -0.228233
    100 H41        -0.3880   -4.4880    1.9060 hn        1 MOL      0.285542
    101 H42         0.0590   -1.6540    1.4430 h1        1 MOL      0.123307
    102 H43         0.7510   -3.2760    3.8300 hc        1 MOL     -0.007373
    103 H44         2.1290   -1.4420    4.7980 hc        1 MOL      0.051277
    104 H45         2.9390   -2.1490    3.2960 hc        1 MOL      0.051277
    105 H46         2.1420   -0.5910    3.2400 hc        1 MOL      0.051277
    106 H47        -0.4270   -1.5070    5.0620 hc        1 MOL      0.051277
    107 H48        -0.4240   -0.4530    3.5580 hc        1 MOL      0.051277
    108 H49        -1.2490   -1.9940    3.6730 hc        1 MOL      0.051277
    109 N10         1.9330   -2.3250   -0.2170 n         1 MOL     -0.069725
    110 C35         3.2180   -2.5260   -0.9520 c3        1 MOL      0.024570
    111 C36         4.4410   -2.1100   -0.1330 c         1 MOL      0.329528
    112 O17         4.2890   -1.3780    0.8800 o         1 MOL     -0.288850
    113 C37         3.2570   -1.9350   -2.3790 c3        1 MOL      0.024101
    114 C38         2.2880   -2.4270   -3.4520 c         1 MOL      0.519412
    115 N11         2.1990   -1.7060   -4.4850 n         1 MOL     -0.592924
    116 O18         1.6400   -3.4640   -3.2910 o         1 MOL     -0.539855
    117 H50         1.2890   -1.6120   -0.5370 hn        1 MOL      0.215445
    118 H51         3.3260   -3.6030   -1.0350 h1        1 MOL      0.038542
    119 H52         4.2680   -2.0450   -2.7830 hc        1 MOL     -0.051581
    120 H53         3.0810   -0.8690   -2.3370 hc        1 MOL     -0.051581
    121 H54         2.8450   -0.9610   -4.6870 hn        1 MOL      0.335618
    122 H55         1.5790   -2.0660   -5.1990 hn        1 MOL      0.335618
    123 N12         5.6560   -2.4100   -0.5750 n         1 MOL     -0.433544
    124 C39         6.9180   -1.9070   -0.0320 c3        1 MOL      0.150480
    125 C40         6.9980   -0.3780   -0.0170 c         1 MOL      0.615320
    126 O19         7.3740    0.1670    0.9700 o         1 MOL     -0.527546
    127 C41         8.0380   -2.6230   -0.6730 c3        1 MOL     -0.093486
    128 C42         9.4040   -2.1450   -0.2630 ca        1 MOL     -0.059549
    129 C43         9.8790   -2.4240    1.0310 ca        1 MOL     -0.114459
    130 C44        10.0400   -1.2030   -1.0950 ca        1 MOL     -0.114459
    131 C45        11.1210   -1.8780    1.4020 ca        1 MOL     -0.295971
    132 C46        11.2380   -0.6500   -0.6660 ca        1 MOL     -0.295971
    133 C47        11.8310   -0.9570    0.5710 ca        1 MOL      0.403939
    134 O20        13.0300   -0.4140    0.9340 oh        1 MOL     -0.518389
    135 H56         5.7610   -2.9930   -1.3990 hn        1 MOL      0.267178
    136 H57         6.8720   -2.2060    1.0120 h1        1 MOL      0.053913
    137 H58         7.9880   -2.4900   -1.7580 hc        1 MOL      0.037904
    138 H59         7.9380   -3.6760   -0.4140 hc        1 MOL      0.037904
    139 H60         9.2270   -3.0060    1.6700 ha        1 MOL      0.139688
    140 H61         9.5890   -0.8460   -2.0020 ha        1 MOL      0.139688
    141 H62        11.3690   -2.0720    2.4370 ha        1 MOL      0.145580
    142 H63        11.8090    0.0110   -1.2990 ha        1 MOL      0.145580
    143 H64        13.4550    0.0490    0.2070 ho        1 MOL      0.367107
    144 N13         6.5430    0.3650   -1.0440 n         1 MOL     -0.411510
    145 C48         6.5300    1.8320   -1.1170 c3        1 MOL     -0.011834
    146 C49         5.4820    2.5010   -0.3400 c         1 MOL      0.372513
    147 O21         5.5800    3.7230   -0.2270 o         1 MOL     -0.497905
    148 C50         6.4480    2.3020   -2.5540 c3        1 MOL     -0.143308
    149 C51         5.1170    2.0030   -3.2860 c3        1 MOL     -0.312247
    150 C52         5.2250    2.5940   -4.6940 c         1 MOL      0.767916
    151 O22         5.4210    1.9260   -5.7270 o         1 MOL     -0.741704
    152 O23         4.9970    3.7990   -4.9380 o         1 MOL     -0.741704
    153 H65         6.4220   -0.0900   -1.9420 hn        1 MOL      0.286390
    154 H66         7.4630    2.1500   -0.6690 h1        1 MOL      0.081079
    155 H67         7.2740    1.8180   -3.0750 hc        1 MOL      0.065482
    156 H68         6.5780    3.3840   -2.5120 hc        1 MOL      0.065482
    157 H69         4.2410    2.4540   -2.8190 hc        1 MOL      0.071544
    158 H70         4.9690    0.9250   -3.2600 hc        1 MOL      0.071544
    159 N14         4.5300    1.7040    0.1450 n         1 MOL     -0.066636
    160 C53         3.5530    2.1220    1.1120 c3        1 MOL      0.014862
    161 C54         4.0730    1.9240    2.5600 c         1 MOL      0.365202
    162 O24         3.9490    2.7960    3.4560 o         1 MOL     -0.524890
    163 C55         2.1420    1.3670    0.9720 c3        1 MOL      0.132940
    164 C56         1.3980    1.6990   -0.2840 c3        1 MOL     -0.182217
    165 C57         0.0290    1.0010   -0.5400 c         1 MOL      0.724929
    166 O25        -1.0360    1.6510   -0.5970 o         1 MOL     -0.744300
    167 O26        -0.1070   -0.2560   -0.5860 o         1 MOL     -0.744300
    168 H71         4.5880    0.7460   -0.1540 hn        1 MOL      0.060325
    169 H72         3.2150    3.1530    0.9580 h1        1 MOL      0.054840
    170 H73         1.5880    1.6590    1.8630 hc        1 MOL     -0.005310
    171 H74         2.2590    0.2900    1.0380 hc        1 MOL     -0.005310
    172 H75         1.9710    1.3380   -1.1430 hc        1 MOL      0.062338
    173 H76         1.3180    2.7650   -0.4870 hc        1 MOL      0.062338
    174 N15         4.7880    0.7740    2.7980 n         1 MOL     -0.079622
    175 C58         5.4810    0.4710    4.0710 c3        1 MOL     -0.104575
    176 H77         5.4120    1.3320    4.7360 h1        1 MOL      0.051407
    177 H78         5.0120   -0.3910    4.5450 h1        1 MOL      0.051407
    178 H79         6.5300    0.2500    3.8710 h1        1 MOL      0.051407
    179 H80         4.8110    0.0670    2.0790 hn        1 MOL      0.041878
    180 Ca1        -2.5880   -0.4540   -1.1040 Ca        1 MOL      1.678064
    181 O27        -1.1870   -0.0050   -3.5650 oh        1 MOL     -0.732581
    182 H81        -0.2990    0.3590   -3.6300 ho        1 MOL      0.339151
    183 H82        -1.7540    0.6940   -3.8900 ho        1 MOL      0.339151
@<TRIPOS>BOND
     1    1    2 1   
     2    1    4 1   
     3    1    5 1   
     4    1    6 1   
     5    2    3 2   
     6    2    7 1   
     7    7    8 1   
     8    7   15 1   
     9    8    9 1   
    10    8   11 1   
    11    8   16 1   
    12    9   10 2   
    13    9   19 1   
    14   11   12 1   
    15   11   17 1   
    16   11   18 1   
    17   12   13 1   
    18   12   14 1   
    19   19   20 1   
    20   19   27 1   
    21   20   21 1   
    22   20   23 1   
    23   20   28 1   
    24   21   22 2   
    25   21   38 1   
    26   23   24 1   
    27   23   25 1   
    28   23   29 1   
    29   24   26 1   
    30   24   30 1   
    31   24   31 1   
    32   25   32 1   
    33   25   33 1   
    34   25   34 1   
    35   26   35 1   
    36   26   36 1   
    37   26   37 1   
    38   38   39 1   
    39   38   46 1   
    40   39   40 1   
    41   39   42 1   
    42   39   47 1   
    43   40   41 2   
    44   40   50 1   
    45   42   43 1   
    46   42   48 1   
    47   42   49 1   
    48   43   44 1   
    49   43   45 1   
    50   50   51 1   
    51   50   54 1   
    52   51   52 1   
    53   51   55 1   
    54   51   56 1   
    55   52   53 2   
    56   52   57 1   
    57   57   58 1   
    58   57   65 1   
    59   58   59 1   
    60   58   61 1   
    61   58   66 1   
    62   59   60 2   
    63   59   69 1   
    64   61   62 1   
    65   61   67 1   
    66   61   68 1   
    67   62   63 1   
    68   62   64 1   
    69   69   70 1   
    70   69   73 1   
    71   70   71 1   
    72   70   74 1   
    73   70   75 1   
    74   71   72 2   
    75   71   76 1   
    76   76   77 1   
    77   76   85 1   
    78   77   78 1   
    79   77   80 1   
    80   77   86 1   
    81   78   79 2   
    82   78   93 1   
    83   80   81 1   
    84   80   87 1   
    85   80   88 1   
    86   81   82 1   
    87   81   89 1   
    88   81   90 1   
    89   82   83 1   
    90   82   84 2   
    91   83   91 1   
    92   83   92 1   
    93   93   94 1   
    94   93  100 1   
    95   94   95 1   
    96   94   97 1   
    97   94  101 1   
    98   95   96 2   
    99   95  109 1   
   100   97   98 1   
   101   97   99 1   
   102   97  102 1   
   103   98  103 1   
   104   98  104 1   
   105   98  105 1   
   106   99  106 1   
   107   99  107 1   
   108   99  108 1   
   109  109  110 1   
   110  109  117 1   
   111  110  111 1   
   112  110  113 1   
   113  110  118 1   
   114  111  112 2   
   115  111  123 1   
   116  113  114 1   
   117  113  119 1   
   118  113  120 1   
   119  114  115 1   
   120  114  116 2   
   121  115  121 1   
   122  115  122 1   
   123  123  124 1   
   124  123  135 1   
   125  124  125 1   
   126  124  127 1   
   127  124  136 1   
   128  125  126 2   
   129  125  144 1   
   130  127  128 1   
   131  127  137 1   
   132  127  138 1   
   133  128  129 ar  
   134  128  130 ar  
   135  129  131 ar  
   136  129  139 1   
   137  130  132 ar  
   138  130  140 1   
   139  131  133 ar  
   140  131  141 1   
   141  132  133 ar  
   142  132  142 1   
   143  133  134 1   
   144  134  143 1   
   145  144  145 1   
   146  144  153 1   
   147  145  146 1   
   148  145  148 1   
   149  145  154 1   
   150  146  147 2   
   151  146  159 1   
   152  148  149 1   
   153  148  155 1   
   154  148  156 1   
   155  149  150 1   
   156  149  157 1   
   157  149  158 1   
   158  150  151 1   
   159  150  152 1   
   160  159  160 1   
   161  159  168 1   
   162  160  161 1   
   163  160  163 1   
   164  160  169 1   
   165  161  162 2   
   166  161  174 1   
   167  163  164 1   
   168  163  170 1   
   169  163  171 1   
   170  164  165 1   
   171  164  172 1   
   172  164  173 1   
   173  165  166 1   
   174  165  167 1   
   175  174  175 1   
   176  174  179 1   
   177  175  176 1   
   178  175  177 1   
   179  175  178 1   
   180  181  182 1   
   181  181  183 1   
@<TRIPOS>SUBSTRUCTURE
     1 MOL         1 TEMP              0 ****  ****    0 ROOT
