@<TRIPOS>MOLECULE
MOL
  189   185     1     0     0
SMALL
resp


@<TRIPOS>ATOM
      1 C1          0.7400   -3.8680    6.1390 c3        1 MOL     -0.409482
      2 C2          1.1850   -3.4360    4.7900 c         1 MOL      0.786297
      3 O1          1.3820   -2.2190    4.5810 o         1 MOL     -0.622907
      4 H1          1.2690   -4.7780    6.4220 hc        1 MOL      0.105462
      5 H2          0.9590   -3.0830    6.8620 hc        1 MOL      0.105462
      6 H3         -0.3320   -4.0600    6.1240 hc        1 MOL      0.105462
      7 N1          1.3970   -4.3460    3.8300 n         1 MOL     -0.756649
      8 C3          2.0720   -3.9700    2.5160 c3        1 MOL      0.589260
      9 C4          1.7150   -4.9860    1.4580 c         1 MOL      0.253244
     10 O2          1.8680   -6.1730    1.6630 o         1 MOL     -0.552247
     11 C5          3.6480   -3.8980    2.5470 c3        1 MOL     -0.515847
     12 C6          4.3450   -3.0280    1.5340 c         1 MOL      0.941588
     13 O3          5.5800   -2.8420    1.6550 o         1 MOL     -0.731094
     14 O4          3.6970   -2.5680    0.5820 o         1 MOL     -0.731094
     15 H4          1.1200   -5.2930    4.0220 hn        1 MOL      0.347038
     16 H5          1.6370   -3.0420    2.1400 h1        1 MOL      0.028583
     17 H6          4.0230   -4.8980    2.3420 hc        1 MOL      0.101676
     18 H7          3.8350   -3.3550    3.4710 hc        1 MOL      0.101676
     19 N2          1.5460   -4.4510    0.2240 n         1 MOL      0.120038
     20 C7          1.4630   -5.2480   -0.9940 c3        1 MOL      0.059648
     21 C8          2.5670   -4.8730   -1.9790 c         1 MOL      0.406294
     22 O5          3.2130   -5.7500   -2.5700 o         1 MOL     -0.590697
     23 C9          0.0540   -5.3500   -1.6700 c3        1 MOL      0.336511
     24 C10        -0.9830   -5.8440   -0.5710 c3        1 MOL     -0.042484
     25 C11        -0.0930   -6.1880   -2.9380 c3        1 MOL     -0.371465
     26 C12        -2.4490   -5.6570   -1.0440 c3        1 MOL     -0.162384
     27 H8          1.4910   -3.4510    0.1040 hn        1 MOL     -0.260338
     28 H9          1.5880   -6.3170   -0.7910 h1        1 MOL      0.006983
     29 H10        -0.2480   -4.3170   -1.8450 hc        1 MOL     -0.069439
     30 H11        -0.8980   -5.3060    0.3810 hc        1 MOL      0.003496
     31 H12        -0.8280   -6.9090   -0.3890 hc        1 MOL      0.003496
     32 H13         0.5520   -5.7440   -3.7040 hc        1 MOL      0.075664
     33 H14         0.3230   -7.1740   -2.7520 hc        1 MOL      0.075664
     34 H15        -1.1340   -6.2170   -3.2590 hc        1 MOL      0.075664
     35 H16        -2.7630   -6.3070   -1.8590 hc        1 MOL      0.042949
     36 H17        -3.2710   -5.7840   -0.3380 hc        1 MOL      0.042949
     37 H18        -2.6190   -4.6160   -1.3270 hc        1 MOL      0.042949
     38 N3          2.6750   -3.5890   -2.2800 n         1 MOL     -0.068131
     39 C13         3.4830   -3.1110   -3.4630 c3        1 MOL     -0.051082
     40 C14         4.9200   -2.7400   -3.2010 c         1 MOL      0.472391
     41 O6          5.6230   -2.4550   -4.1830 o         1 MOL     -0.566648
     42 C15         2.7500   -1.9090   -4.1410 c3        1 MOL     -0.250878
     43 C16         2.5050   -0.7820   -3.1560 c         1 MOL      0.818589
     44 O7          3.2650   -0.5670   -2.1640 o         1 MOL     -0.701460
     45 O8          1.4920   -0.1190   -3.4480 o         1 MOL     -0.701460
     46 H19         2.2440   -3.0210   -1.5790 hn        1 MOL      0.009029
     47 H20         3.5750   -3.9120   -4.1970 h1        1 MOL      0.109360
     48 H21         1.8170   -2.3180   -4.5120 hc        1 MOL      0.067931
     49 H22         3.3870   -1.4780   -4.9160 hc        1 MOL      0.067931
     50 N4          5.3980   -2.7640   -1.9510 n         1 MOL     -0.321318
     51 C17         6.7520   -2.4110   -1.4400 c3        1 MOL     -0.059726
     52 C18         7.2420   -0.9340   -1.5080 c         1 MOL      0.450655
     53 O9          8.4190   -0.6980   -1.4680 o         1 MOL     -0.578624
     54 H23         4.7950   -3.0800   -1.2070 hn        1 MOL      0.233420
     55 H24         7.4670   -3.0840   -1.9040 h1        1 MOL      0.071147
     56 H25         6.7830   -2.6770   -0.3840 h1        1 MOL      0.071147
     57 N5          6.2970    0.0110   -1.7940 n         1 MOL     -0.081378
     58 C19         6.6940    1.2820   -2.3200 c3        1 MOL     -0.046539
     59 C20         7.2200    2.3220   -1.3180 c         1 MOL      0.498940
     60 O10         7.8840    3.2720   -1.6920 o         1 MOL     -0.574948
     61 C21         5.4560    1.8810   -3.1260 c3        1 MOL     -0.490120
     62 C22         4.2710    2.2610   -2.2060 c         1 MOL      0.914330
     63 O11         4.3370    2.0140   -0.9600 o         1 MOL     -0.748791
     64 O12         3.3260    2.8980   -2.7170 o         1 MOL     -0.748791
     65 H26         5.3270   -0.2550   -1.8590 hn        1 MOL      0.161685
     66 H27         7.5670    1.1250   -2.9500 h1        1 MOL      0.091437
     67 H28         5.1510    1.1620   -3.8790 hc        1 MOL      0.131638
     68 H29         5.8080    2.8240   -3.5360 hc        1 MOL      0.131638
     69 N6          7.1160    2.0510   -0.0350 n         1 MOL     -0.204979
     70 C23         7.6060    2.9160    1.0600 c3        1 MOL     -0.264979
     71 C24         6.5210    3.8820    1.7300 c         1 MOL      0.556311
     72 O13         6.8250    4.5750    2.7340 o         1 MOL     -0.593294
     73 H30         6.5470    1.2860    0.2880 hn        1 MOL      0.210867
     74 H31         8.2660    3.6300    0.5790 h1        1 MOL      0.113206
     75 H32         8.0880    2.3060    1.8310 h1        1 MOL      0.113206
     76 N7          5.2650    3.8160    1.2260 n         1 MOL     -0.273966
     77 C25         3.9980    4.3970    1.7000 c3        1 MOL     -0.068997
     78 C26         2.8130    3.3830    1.7450 c         1 MOL      0.625873
     79 O14         3.0690    2.2060    1.6920 o         1 MOL     -0.536542
     80 C27         3.6840    5.7090    0.9500 c3        1 MOL     -0.104261
     81 C28         3.0740    5.5490   -0.4200 c3        1 MOL     -0.213318
     82 C29         2.6370    6.9280   -1.0250 c         1 MOL      0.665274
     83 N8          2.8340    7.0410   -2.2730 n         1 MOL     -0.756366
     84 O15         2.1280    7.8270   -0.3510 o         1 MOL     -0.597821
     85 H33         5.1290    3.0340    0.5980 hn        1 MOL      0.211092
     86 H34         4.1820    4.7390    2.7280 h1        1 MOL      0.078720
     87 H35         4.5580    6.3560    1.0050 hc        1 MOL      0.050817
     88 H36         2.9330    6.2770    1.4940 hc        1 MOL      0.050817
     89 H37         2.2120    4.8860   -0.4150 hc        1 MOL      0.097038
     90 H38         3.8640    5.1370   -1.0470 hc        1 MOL      0.097038
     91 H39         3.2990    6.2810   -2.7500 hn        1 MOL      0.352060
     92 H40         2.5700    7.8600   -2.8040 hn        1 MOL      0.352060
     93 N9          1.5960    3.8460    2.0620 n         1 MOL     -0.517150
     94 C30         0.4750    2.9440    2.1270 c3        1 MOL     -0.037293
     95 C31        -0.6470    3.2000    1.1090 c         1 MOL      0.549752
     96 O16        -1.1630    4.2950    1.0390 o         1 MOL     -0.583359
     97 C32        -0.2250    2.9310    3.5330 c3        1 MOL      0.337633
     98 C33        -1.3140    1.8810    3.6310 c3        1 MOL     -0.357130
     99 C34         0.8280    2.7260    4.6290 c3        1 MOL     -0.357130
    100 H41         1.3800    4.8340    2.0000 hn        1 MOL      0.310740
    101 H42         0.8420    1.9230    1.9730 h1        1 MOL      0.073228
    102 H43        -0.7980    3.8490    3.6450 hc        1 MOL     -0.042571
    103 H44        -2.0930    2.0430    2.8720 hc        1 MOL      0.071852
    104 H45        -0.8450    0.9000    3.6390 hc        1 MOL      0.071852
    105 H46        -1.7070    2.0270    4.6410 hc        1 MOL      0.071852
    106 H47         1.5470    3.5390    4.5880 hc        1 MOL      0.071852
    107 H48         0.2870    2.9280    5.5550 hc        1 MOL      0.071852
    108 H49         1.4570    1.8360    4.5380 hc        1 MOL      0.071852
    109 N10        -1.0720    2.2090    0.2690 n         1 MOL     -0.119800
    110 C35        -2.1110    2.2990   -0.6540 c3        1 MOL     -0.035194
    111 C36        -3.4450    1.9430    0.0160 c         1 MOL      0.336826
    112 O17        -3.5650    1.2710    1.0760 o         1 MOL     -0.313674
    113 C37        -1.7700    1.3640   -1.8010 c3        1 MOL     -0.145493
    114 C38        -2.9110    1.4050   -2.8650 c         1 MOL      0.628567
    115 N11        -2.9390    2.3730   -3.7130 n         1 MOL     -0.716367
    116 O18        -3.8640    0.6770   -2.8500 o         1 MOL     -0.522406
    117 H50        -0.6190    1.3190    0.4140 hn        1 MOL      0.049831
    118 H51        -2.1820    3.3010   -1.0540 h1        1 MOL      0.052950
    119 H52        -1.7940    0.3260   -1.4720 hc        1 MOL      0.087883
    120 H53        -0.7720    1.5640   -2.1940 hc        1 MOL      0.087883
    121 H54        -2.2370    3.1030   -3.7630 hn        1 MOL      0.332575
    122 H55        -3.6620    2.5550   -4.4010 hn        1 MOL      0.332575
    123 N12        -4.5040    2.4010   -0.5740 n         1 MOL     -0.313646
    124 C39        -5.8910    2.3040   -0.1900 c3        1 MOL      0.128021
    125 C40        -6.3030    0.8060    0.2100 c         1 MOL      0.517308
    126 O19        -6.9230    0.6360    1.2810 o         1 MOL     -0.577807
    127 C41        -6.7830    2.7320   -1.4160 c3        1 MOL     -0.280868
    128 C42        -8.2930    2.6730   -1.2850 ca        1 MOL      0.359474
    129 C43        -8.8940    3.5360   -0.2930 ca        1 MOL     -0.461503
    130 C44        -9.0820    1.9700   -2.2380 ca        1 MOL     -0.461503
    131 C45       -10.3120    3.5400   -0.1910 ca        1 MOL      0.046022
    132 C46       -10.4680    2.0210   -2.0470 ca        1 MOL      0.046022
    133 C47       -11.0790    2.8120   -1.0330 ca        1 MOL      0.090085
    134 O20       -12.4360    2.6660   -0.7980 oh        1 MOL     -0.580709
    135 H56        -4.4140    2.7880   -1.5000 hn        1 MOL      0.205968
    136 H57        -6.0280    2.9200    0.6960 h1        1 MOL      0.038272
    137 H58        -6.3760    2.3480   -2.3510 hc        1 MOL      0.073568
    138 H59        -6.5620    3.7820   -1.6010 hc        1 MOL      0.073568
    139 H60        -8.2150    4.1440    0.2900 ha        1 MOL      0.188233
    140 H61        -8.6150    1.4350   -3.0490 ha        1 MOL      0.188233
    141 H62       -10.8140    4.1090    0.5790 ha        1 MOL      0.084448
    142 H63       -11.0910    1.4590   -2.7190 ha        1 MOL      0.084448
    143 H64       -12.9720    2.0410   -1.2770 ho        1 MOL      0.435700
    144 N13        -5.8550   -0.2240   -0.4530 n         1 MOL     -0.024668
    145 C48        -6.2310   -1.5990   -0.2250 c3        1 MOL     -0.222508
    146 C49        -5.3450   -2.2440    0.8550 c         1 MOL      0.506972
    147 O21        -5.6530   -3.2370    1.4680 o         1 MOL     -0.522865
    148 C50        -6.1630   -2.3760   -1.5790 c3        1 MOL      0.064540
    149 C51        -7.1900   -1.9440   -2.6180 c3        1 MOL     -0.202118
    150 C52        -8.6850   -2.2070   -2.1630 c         1 MOL      0.709038
    151 O22        -9.6310   -1.5690   -2.6640 o         1 MOL     -0.709744
    152 O23        -8.9570   -3.1910   -1.4000 o         1 MOL     -0.709744
    153 H65        -5.3400   -0.0540   -1.3060 hn        1 MOL      0.113241
    154 H66        -7.2690   -1.7270    0.0670 h1        1 MOL      0.135815
    155 H67        -6.3050   -3.4230   -1.3030 hc        1 MOL      0.004273
    156 H68        -5.1430   -2.2530   -1.9410 hc        1 MOL      0.004273
    157 H69        -6.9990   -2.5120   -3.5240 hc        1 MOL      0.019290
    158 H70        -7.0360   -0.9060   -2.8940 hc        1 MOL      0.019290
    159 N14        -4.2510   -1.5490    1.1850 n         1 MOL     -0.326827
    160 C53        -3.3240   -1.8620    2.3290 c3        1 MOL     -0.010471
    161 C54        -3.8420   -1.3930    3.7110 c         1 MOL      0.411265
    162 O24        -3.7340   -2.1030    4.7570 o         1 MOL     -0.545181
    163 C55        -1.9000   -1.4580    1.8900 c3        1 MOL      0.048445
    164 C56        -1.3740   -1.9060    0.4790 c3        1 MOL     -0.033491
    165 C57         0.0170   -1.2480    0.3140 c         1 MOL      0.444855
    166 O25         0.7960   -1.6880   -0.6120 o         1 MOL     -0.482926
    167 O26         0.4460   -0.2610    0.9650 o         1 MOL     -0.482926
    168 H71        -4.0460   -0.6890    0.7030 hn        1 MOL      0.161981
    169 H72        -3.2170   -2.9360    2.4510 h1        1 MOL      0.059539
    170 H73        -1.1510   -1.8170    2.6020 hc        1 MOL      0.015695
    171 H74        -1.9790   -0.3700    1.7990 hc        1 MOL      0.015695
    172 H75        -1.9160   -1.4990   -0.3700 hc        1 MOL      0.010296
    173 H76        -1.1930   -2.9830    0.3920 hc        1 MOL      0.010296
    174 N15        -4.4280   -0.1660    3.6870 n         1 MOL     -0.007171
    175 C58        -4.8360    0.4570    4.9270 c3        1 MOL     -0.278267
    176 H77        -5.4720    1.3150    4.7110 h1        1 MOL      0.091659
    177 H78        -5.3890   -0.2620    5.5320 h1        1 MOL      0.091659
    178 H79        -3.9530    0.7900    5.4740 h1        1 MOL      0.091659
    179 H80        -4.5320    0.2940    2.7860 hn        1 MOL      0.075789
    180 Ca1         2.9120   -0.1040    0.2710 Ca        1 MOL      1.731254
    181 O27         2.8570   -0.5910    2.9500 oh        1 MOL     -0.922104
    182 H81         3.5930   -0.2280    3.4480 ho        1 MOL      0.421319
    183 H82         2.3270   -1.0500    3.5980 ho        1 MOL      0.421319
    184 O28         1.4930    1.5320   -1.3480 oh        1 MOL     -0.922104
    185 H83         1.9860    2.2120   -1.8010 ho        1 MOL      0.421319
    186 H84         1.3530    0.8500   -2.0090 ho        1 MOL      0.421319
    187 O29         5.4350   -0.2450    1.2640 oh        1 MOL     -0.922104
    188 H85         5.6830   -1.1680    1.3060 ho        1 MOL      0.421319
    189 H86         5.8190    0.1420    2.0550 ho        1 MOL      0.421319
@<TRIPOS>BOND
     1    1    2 1   
     2    1    4 1   
     3    1    5 1   
     4    1    6 1   
     5    2    3 2   
     6    2    7 1   
     7    7    8 1   
     8    7   15 1   
     9    8    9 1   
    10    8   11 1   
    11    8   16 1   
    12    9   10 2   
    13    9   19 1   
    14   11   12 1   
    15   11   17 1   
    16   11   18 1   
    17   12   13 1   
    18   12   14 1   
    19   19   20 1   
    20   19   27 1   
    21   20   21 1   
    22   20   23 1   
    23   20   28 1   
    24   21   22 2   
    25   21   38 1   
    26   23   24 1   
    27   23   25 1   
    28   23   29 1   
    29   24   26 1   
    30   24   30 1   
    31   24   31 1   
    32   25   32 1   
    33   25   33 1   
    34   25   34 1   
    35   26   35 1   
    36   26   36 1   
    37   26   37 1   
    38   38   39 1   
    39   38   46 1   
    40   39   40 1   
    41   39   42 1   
    42   39   47 1   
    43   40   41 2   
    44   40   50 1   
    45   42   43 1   
    46   42   48 1   
    47   42   49 1   
    48   43   44 1   
    49   43   45 1   
    50   50   51 1   
    51   50   54 1   
    52   51   52 1   
    53   51   55 1   
    54   51   56 1   
    55   52   53 2   
    56   52   57 1   
    57   57   58 1   
    58   57   65 1   
    59   58   59 1   
    60   58   61 1   
    61   58   66 1   
    62   59   60 2   
    63   59   69 1   
    64   61   62 1   
    65   61   67 1   
    66   61   68 1   
    67   62   63 1   
    68   62   64 1   
    69   69   70 1   
    70   69   73 1   
    71   70   71 1   
    72   70   74 1   
    73   70   75 1   
    74   71   72 2   
    75   71   76 1   
    76   76   77 1   
    77   76   85 1   
    78   77   78 1   
    79   77   80 1   
    80   77   86 1   
    81   78   79 2   
    82   78   93 1   
    83   80   81 1   
    84   80   87 1   
    85   80   88 1   
    86   81   82 1   
    87   81   89 1   
    88   81   90 1   
    89   82   83 1   
    90   82   84 2   
    91   83   91 1   
    92   83   92 1   
    93   93   94 1   
    94   93  100 1   
    95   94   95 1   
    96   94   97 1   
    97   94  101 1   
    98   95   96 2   
    99   95  109 1   
   100   97   98 1   
   101   97   99 1   
   102   97  102 1   
   103   98  103 1   
   104   98  104 1   
   105   98  105 1   
   106   99  106 1   
   107   99  107 1   
   108   99  108 1   
   109  109  110 1   
   110  109  117 1   
   111  110  111 1   
   112  110  113 1   
   113  110  118 1   
   114  111  112 2   
   115  111  123 1   
   116  113  114 1   
   117  113  119 1   
   118  113  120 1   
   119  114  115 1   
   120  114  116 2   
   121  115  121 1   
   122  115  122 1   
   123  123  124 1   
   124  123  135 1   
   125  124  125 1   
   126  124  127 1   
   127  124  136 1   
   128  125  126 2   
   129  125  144 1   
   130  127  128 1   
   131  127  137 1   
   132  127  138 1   
   133  128  129 ar  
   134  128  130 ar  
   135  129  131 ar  
   136  129  139 1   
   137  130  132 ar  
   138  130  140 1   
   139  131  133 ar  
   140  131  141 1   
   141  132  133 ar  
   142  132  142 1   
   143  133  134 1   
   144  134  143 1   
   145  144  145 1   
   146  144  153 1   
   147  145  146 1   
   148  145  148 1   
   149  145  154 1   
   150  146  147 2   
   151  146  159 1   
   152  148  149 1   
   153  148  155 1   
   154  148  156 1   
   155  149  150 1   
   156  149  157 1   
   157  149  158 1   
   158  150  151 1   
   159  150  152 1   
   160  159  160 1   
   161  159  168 1   
   162  160  161 1   
   163  160  163 1   
   164  160  169 1   
   165  161  162 2   
   166  161  174 1   
   167  163  164 1   
   168  163  170 1   
   169  163  171 1   
   170  164  165 1   
   171  164  172 1   
   172  164  173 1   
   173  165  166 1   
   174  165  167 1   
   175  174  175 1   
   176  174  179 1   
   177  175  176 1   
   178  175  177 1   
   179  175  178 1   
   180  181  182 1   
   181  181  183 1   
   182  184  185 1   
   183  184  186 1   
   184  187  188 1   
   185  187  189 1   
@<TRIPOS>SUBSTRUCTURE
     1 MOL         1 TEMP              0 ****  ****    0 ROOT
