@<TRIPOS>MOLECULE
MOL
  189   185     1     0     0
SMALL
resp


@<TRIPOS>ATOM
      1 C1          0.2150    3.6680   -5.1900 c3        1 MOL     -0.239286
      2 C2          0.6700    3.1450   -3.8130 c         1 MOL      0.674979
      3 O1          0.0170    3.3280   -2.7810 o         1 MOL     -0.586348
      4 H1         -0.8330    3.9620   -5.1380 hc        1 MOL      0.061499
      5 H2          0.8200    4.5300   -5.4690 hc        1 MOL      0.061499
      6 H3          0.3360    2.8820   -5.9350 hc        1 MOL      0.061499
      7 N1          1.8810    2.5570   -3.6870 n         1 MOL     -0.581326
      8 C3          2.4090    1.9740   -2.4130 c3        1 MOL      0.114263
      9 C4          2.9900    3.0880   -1.4700 c         1 MOL      0.338247
     10 O2          4.0710    3.7200   -1.7650 o         1 MOL     -0.533676
     11 C5          3.4910    0.9330   -2.8320 c3        1 MOL     -0.104681
     12 C6          4.0390    0.2310   -1.5330 c         1 MOL      0.781369
     13 O3          3.3220    0.2610   -0.4950 o         1 MOL     -0.730231
     14 O4          5.1430   -0.3190   -1.5220 o         1 MOL     -0.730231
     15 H4          2.4050    2.6400   -4.5450 hn        1 MOL      0.313659
     16 H5          1.6460    1.4550   -1.8380 h1        1 MOL      0.078908
     17 H6          4.3300    1.3640   -3.3790 hc        1 MOL      0.030642
     18 H7          3.0040    0.1700   -3.4370 hc        1 MOL      0.030642
     19 N2          2.3870    3.3640   -0.3010 n         1 MOL     -0.063174
     20 C7          2.5940    4.6400    0.4670 c3        1 MOL      0.024588
     21 C8          3.6100    4.5220    1.5590 c         1 MOL      0.390742
     22 O5          4.5850    5.2530    1.4310 o         1 MOL     -0.512862
     23 C9          1.2490    5.1220    1.1220 c3        1 MOL      0.076238
     24 C10         0.1210    5.2650    0.0750 c3        1 MOL      0.094996
     25 C11         0.4520    6.1340   -1.1260 c3        1 MOL     -0.314720
     26 C12         0.8810    7.6310   -0.8200 c3        1 MOL      0.061822
     27 N3          1.3620    8.2590   -2.0580 n4        1 MOL     -0.282909
     28 H8          1.6440    2.7360   -0.0140 hn        1 MOL      0.070763
     29 H9          2.8950    5.4490   -0.2090 h1        1 MOL      0.043678
     30 H10         1.4300    6.0780    1.6050 hc        1 MOL     -0.024114
     31 H11         0.9200    4.5130    1.9610 hc        1 MOL     -0.024114
     32 H12        -0.7560    5.6290    0.6300 hc        1 MOL      0.017179
     33 H13        -0.1570    4.2790   -0.2990 hc        1 MOL      0.017179
     34 H14        -0.3570    6.0400   -1.8570 hc        1 MOL      0.107802
     35 H15         1.1910    5.6380   -1.7550 hc        1 MOL      0.107802
     36 H16         1.7920    7.4670   -0.2450 hx        1 MOL      0.081815
     37 H17         0.1580    8.2820   -0.3290 hx        1 MOL      0.081815
     38 H18         0.6910    8.3970   -2.7990 hn        1 MOL      0.306641
     39 H19         1.6780    9.1760   -1.7620 hn        1 MOL      0.306641
     40 H20         2.0940    7.7470   -2.5400 hn        1 MOL      0.306641
     41 N4          3.4820    3.4560    2.4220 n         1 MOL     -0.370237
     42 C13         4.4730    3.0640    3.3640 c3        1 MOL      0.143401
     43 C14         5.7200    2.3940    2.7320 c         1 MOL      0.272722
     44 O6          6.8270    2.2520    3.3150 o         1 MOL     -0.537524
     45 C15         3.8800    2.1030    4.4620 c3        1 MOL     -0.376532
     46 C16         2.9470    1.0150    3.9300 c         1 MOL      0.810037
     47 O7          2.1940    0.4300    4.6980 o         1 MOL     -0.687819
     48 O8          3.0270    0.6600    2.7190 o         1 MOL     -0.687819
     49 H21         2.6970    2.8530    2.2140 hn        1 MOL      0.221947
     50 H22         4.8350    3.9130    3.9350 h1        1 MOL      0.079940
     51 H23         3.3040    2.8250    5.0320 hc        1 MOL      0.100191
     52 H24         4.7100    1.6810    5.0210 hc        1 MOL      0.100191
     53 N5          5.5480    1.8940    1.5180 n         1 MOL      0.132346
     54 C17         6.6750    1.4030    0.7900 c3        1 MOL     -0.310376
     55 C18         7.0670   -0.0590    1.0260 c         1 MOL      0.654657
     56 O9          8.1620   -0.4430    0.6630 o         1 MOL     -0.604950
     57 H25         4.6220    1.8550    1.1150 hn        1 MOL      0.082166
     58 H26         7.5600    2.0400    0.9030 h1        1 MOL      0.118124
     59 H27         6.5080    1.4760   -0.2860 h1        1 MOL      0.118124
     60 N6          6.1920   -0.8440    1.6530 n         1 MOL     -0.394663
     61 C19         6.4760   -2.1900    2.0000 c3        1 MOL      0.028532
     62 C20         6.4470   -3.2080    0.7840 c         1 MOL      0.397611
     63 O10         6.8160   -4.3720    0.9650 o         1 MOL     -0.550891
     64 C21         5.6230   -2.6820    3.1950 c3        1 MOL     -0.375046
     65 C22         4.0900   -2.6590    2.9320 c         1 MOL      0.815939
     66 O11         3.6250   -2.3140    1.8390 o         1 MOL     -0.704558
     67 O12         3.3260   -2.9210    3.8740 o         1 MOL     -0.704558
     68 H28         5.3070   -0.4040    1.8420 hn        1 MOL      0.261182
     69 H29         7.4880   -2.3050    2.3870 h1        1 MOL      0.103901
     70 H30         5.6560   -1.9220    3.9780 hc        1 MOL      0.119567
     71 H31         5.8780   -3.6860    3.5370 hc        1 MOL      0.119567
     72 N7          6.1750   -2.7370   -0.4450 n         1 MOL     -0.192929
     73 C23         6.3660   -3.4400   -1.6870 c3        1 MOL     -0.026721
     74 C24         5.0590   -3.9810   -2.2980 c         1 MOL      0.475695
     75 O13         5.1140   -4.3440   -3.4640 o         1 MOL     -0.549676
     76 H32         5.8800   -1.7810   -0.5150 hn        1 MOL      0.281116
     77 H33         6.9620   -4.3490   -1.5540 h1        1 MOL      0.072397
     78 H34         7.0190   -2.8760   -2.3560 h1        1 MOL      0.072397
     79 N8          3.8590   -3.8190   -1.6440 n         1 MOL     -0.307985
     80 C25         2.5710   -4.2580   -2.1720 c3        1 MOL      0.147696
     81 C26         1.4960   -3.1820   -1.9120 c         1 MOL      0.798851
     82 O14         1.7230   -2.1640   -1.2170 o         1 MOL     -0.705628
     83 C27         2.0650   -5.6630   -1.6860 c3        1 MOL      0.210264
     84 C28         3.0440   -6.7640   -1.8540 c3        1 MOL     -0.357811
     85 O15         1.6560   -5.5750   -0.3070 oh        1 MOL     -0.625070
     86 H35         3.7960   -3.1970   -0.8590 hn        1 MOL      0.173874
     87 H36         2.5870   -4.3380   -3.2540 h1        1 MOL      0.003113
     88 H37         1.1420   -5.7970   -2.2580 h1        1 MOL      0.005031
     89 H38         1.6460   -6.4960   -0.0380 ho        1 MOL      0.410731
     90 H39         2.5390   -7.7310   -1.8260 hc        1 MOL      0.107712
     91 H40         3.5310   -6.6320   -2.8280 hc        1 MOL      0.107712
     92 H41         3.7280   -6.7820   -1.0190 hc        1 MOL      0.107712
     93 N9          0.3880   -3.3340   -2.6000 n         1 MOL     -0.655839
     94 C29        -0.7000   -2.3360   -2.5470 c3        1 MOL      0.026393
     95 C30        -2.0920   -2.8350   -2.0840 c         1 MOL      0.655444
     96 O16        -2.5000   -3.9440   -2.4910 o         1 MOL     -0.576702
     97 C31        -0.8920   -1.7860   -4.0410 c3        1 MOL      0.113591
     98 C32         0.3410   -1.0860   -4.6280 c3        1 MOL      0.317668
     99 C33        -2.0560   -0.7770   -4.1330 c3        1 MOL     -0.613665
    100 C34         0.3210   -0.9030   -6.1830 c3        1 MOL     -0.362099
    101 H42         0.2150   -4.2000   -3.0840 hn        1 MOL      0.312508
    102 H43        -0.4390   -1.4330   -2.0000 h1        1 MOL      0.074909
    103 H44        -1.1520   -2.6300   -4.6850 hc        1 MOL      0.010064
    104 H45         1.2320   -1.6850   -4.4230 hc        1 MOL     -0.045280
    105 H46         0.4510   -0.1150   -4.1350 hc        1 MOL     -0.045280
    106 H47        -3.0090   -1.2750   -3.9410 hc        1 MOL      0.143289
    107 H48        -1.7720    0.1280   -3.6130 hc        1 MOL      0.143289
    108 H49        -2.1330   -0.5200   -5.1910 hc        1 MOL      0.143289
    109 H50         1.3490   -0.6500   -6.4320 hc        1 MOL      0.079072
    110 H51         0.1100   -1.9000   -6.5600 hc        1 MOL      0.079072
    111 H52        -0.4830   -0.2180   -6.4860 hc        1 MOL      0.079072
    112 N10        -2.7000   -2.1350   -1.0860 n         1 MOL     -0.318621
    113 C35        -3.8560   -2.5600   -0.3020 c3        1 MOL     -0.065178
    114 C36        -5.1850   -1.8860   -0.7220 c         1 MOL      0.227804
    115 O17        -5.1190   -0.8140   -1.3510 o         1 MOL     -0.278571
    116 C37        -3.6930   -2.3620    1.2420 c3        1 MOL      0.335706
    117 C38        -2.6210   -3.1170    1.9330 c3        1 MOL     -0.175103
    118 O18        -3.2790   -1.0350    1.4450 oh        1 MOL     -0.551503
    119 H53        -2.2700   -1.2520   -0.8570 hn        1 MOL      0.292143
    120 H54        -3.9630   -3.6500   -0.2900 h1        1 MOL      0.066402
    121 H55        -4.6220   -2.5960    1.7560 h1        1 MOL      0.000611
    122 H56        -2.4570   -0.9620    0.9550 ho        1 MOL      0.344985
    123 H57        -1.8240   -3.2320    1.2050 hc        1 MOL      0.039002
    124 H58        -2.2350   -2.6450    2.8370 hc        1 MOL      0.039002
    125 H59        -2.9830   -4.1050    2.2430 hc        1 MOL      0.039002
    126 N11        -6.4080   -2.3220   -0.2700 n         1 MOL     -0.179164
    127 C39        -7.6250   -1.6450   -0.5870 c3        1 MOL     -0.152985
    128 C40        -7.6780   -0.2280   -0.0260 c         1 MOL      0.325871
    129 O19        -8.3130    0.6060   -0.6660 o         1 MOL     -0.498423
    130 C41        -8.8690   -2.3470   -0.0200 c3        1 MOL      0.281159
    131 C42        -9.2430   -3.4970   -0.9360 c3        1 MOL     -0.381573
    132 O20        -8.5570   -2.9120    1.2320 oh        1 MOL     -0.690839
    133 H60        -6.5190   -3.2260    0.1700 hn        1 MOL      0.256998
    134 H61        -7.6030   -1.5300   -1.6730 h1        1 MOL      0.158732
    135 H62        -9.7440   -1.7070    0.0500 h1        1 MOL      0.086068
    136 H63        -9.2400   -3.5420    1.4630 ho        1 MOL      0.439551
    137 H64       -10.2420   -3.8060   -0.6410 hc        1 MOL      0.103434
    138 H65        -9.2250   -3.1660   -1.9790 hc        1 MOL      0.103434
    139 H66        -8.5580   -4.3200   -0.7310 hc        1 MOL      0.103434
    140 N12        -6.9230    0.0750    1.0270 n         1 MOL     -0.046520
    141 C43        -6.7920    1.3770    1.6560 c3        1 MOL     -0.013101
    142 C44        -6.0560    2.2900    0.6610 c         1 MOL      0.360998
    143 O21        -6.6590    3.3240    0.2680 o         1 MOL     -0.479577
    144 C45        -6.0510    1.1650    2.9580 c3        1 MOL     -0.144861
    145 C46        -6.4780   -0.0850    3.7690 c3        1 MOL     -0.013253
    146 C47        -5.8400    0.0850    5.2120 c3        1 MOL     -0.069397
    147 C48        -6.2220   -1.0710    6.0870 c3        1 MOL     -0.110681
    148 N13        -7.6570   -1.0560    6.4160 n4        1 MOL     -0.322417
    149 H67        -6.3820   -0.6920    1.3870 hn        1 MOL      0.025726
    150 H68        -7.8380    1.6290    1.8490 h1        1 MOL      0.082220
    151 H69        -6.1380    2.1080    3.4890 hc        1 MOL      0.057146
    152 H70        -4.9700    1.0950    2.8020 hc        1 MOL      0.057146
    153 H71        -5.9960   -0.9780    3.3790 hc        1 MOL      0.048819
    154 H72        -7.5590   -0.1780    3.7590 hc        1 MOL      0.048819
    155 H73        -6.1800    1.0090    5.6930 hc        1 MOL      0.085240
    156 H74        -4.7610   -0.0100    5.1140 hc        1 MOL      0.085240
    157 H75        -5.5930   -0.8770    6.9470 hx        1 MOL      0.124901
    158 H76        -6.0060   -1.9930    5.5330 hx        1 MOL      0.124901
    159 H77        -7.7480   -1.7880    7.1130 hn        1 MOL      0.286708
    160 H78        -7.8220   -0.1170    6.7550 hn        1 MOL      0.286708
    161 H79        -8.2550   -1.3890    5.6740 hn        1 MOL      0.286708
    162 N14        -4.8210    1.9850    0.3540 n         1 MOL     -0.167117
    163 C49        -4.0270    2.6720   -0.7360 c3        1 MOL     -0.085878
    164 C50        -4.8230    2.8250   -2.0510 c         1 MOL      0.375925
    165 O22        -5.0160    3.9700   -2.5740 o         1 MOL     -0.517995
    166 C51        -2.8100    1.7890   -0.9770 c3        1 MOL      0.121341
    167 C52        -1.9340    1.8710    0.2860 c3        1 MOL      0.004858
    168 C53        -0.6990    0.9730    0.1950 c         1 MOL      0.732362
    169 O23        -0.8370   -0.2580    0.1280 o         1 MOL     -0.698432
    170 O24         0.4000    1.4810    0.4460 o         1 MOL     -0.698432
    171 H80        -4.4640    1.1490    0.7900 hn        1 MOL      0.174239
    172 H81        -3.6840    3.6860   -0.5600 h1        1 MOL      0.083428
    173 H82        -2.2610    2.2210   -1.8070 hc        1 MOL     -0.037911
    174 H83        -3.0900    0.7700   -1.2460 hc        1 MOL     -0.037911
    175 H84        -2.5680    1.5800    1.1280 hc        1 MOL     -0.016964
    176 H85        -1.7630    2.9070    0.5800 hc        1 MOL     -0.016964
    177 N15        -5.4610    1.7340   -2.5730 n         1 MOL      0.039216
    178 C54        -6.0130    1.7740   -3.8920 c3        1 MOL     -0.340254
    179 H86        -6.8230    2.5030   -3.9250 h1        1 MOL      0.116425
    180 H87        -5.2370    2.0620   -4.6030 h1        1 MOL      0.116425
    181 H88        -6.3990    0.7890   -4.1560 h1        1 MOL      0.116425
    182 H89        -5.2330    0.8630   -2.1190 hn        1 MOL      0.061301
    183 Ca1         1.5510   -0.7920    1.1970 Ca        1 MOL      1.737954
    184 O25         0.2690   -0.7710    3.5860 oh        1 MOL     -0.946892
    185 H90        -0.3690   -1.1300    4.1940 ho        1 MOL      0.435143
    186 H91         1.0770   -0.7090    4.0880 ho        1 MOL      0.435143
    187 O26         0.7670   -3.3760    1.2610 oh        1 MOL     -0.946892
    188 H92         0.8140   -3.7330    2.1570 ho        1 MOL      0.435143
    189 H93         1.0020   -4.1110    0.7010 ho        1 MOL      0.435143
@<TRIPOS>BOND
     1    1    2 1   
     2    1    4 1   
     3    1    5 1   
     4    1    6 1   
     5    2    3 2   
     6    2    7 1   
     7    7    8 1   
     8    7   15 1   
     9    8    9 1   
    10    8   11 1   
    11    8   16 1   
    12    9   10 2   
    13    9   19 1   
    14   11   12 1   
    15   11   17 1   
    16   11   18 1   
    17   12   13 1   
    18   12   14 1   
    19   19   20 1   
    20   19   28 1   
    21   20   21 1   
    22   20   23 1   
    23   20   29 1   
    24   21   22 2   
    25   21   41 1   
    26   23   24 1   
    27   23   30 1   
    28   23   31 1   
    29   24   25 1   
    30   24   32 1   
    31   24   33 1   
    32   25   26 1   
    33   25   34 1   
    34   25   35 1   
    35   26   27 1   
    36   26   36 1   
    37   26   37 1   
    38   27   38 1   
    39   27   39 1   
    40   27   40 1   
    41   41   42 1   
    42   41   49 1   
    43   42   43 1   
    44   42   45 1   
    45   42   50 1   
    46   43   44 2   
    47   43   53 1   
    48   45   46 1   
    49   45   51 1   
    50   45   52 1   
    51   46   47 1   
    52   46   48 1   
    53   53   54 1   
    54   53   57 1   
    55   54   55 1   
    56   54   58 1   
    57   54   59 1   
    58   55   56 2   
    59   55   60 1   
    60   60   61 1   
    61   60   68 1   
    62   61   62 1   
    63   61   64 1   
    64   61   69 1   
    65   62   63 2   
    66   62   72 1   
    67   64   65 1   
    68   64   70 1   
    69   64   71 1   
    70   65   66 1   
    71   65   67 1   
    72   72   73 1   
    73   72   76 1   
    74   73   74 1   
    75   73   77 1   
    76   73   78 1   
    77   74   75 2   
    78   74   79 1   
    79   79   80 1   
    80   79   86 1   
    81   80   81 1   
    82   80   83 1   
    83   80   87 1   
    84   81   82 2   
    85   81   93 1   
    86   83   84 1   
    87   83   85 1   
    88   83   88 1   
    89   84   90 1   
    90   84   91 1   
    91   84   92 1   
    92   85   89 1   
    93   93   94 1   
    94   93  101 1   
    95   94   95 1   
    96   94   97 1   
    97   94  102 1   
    98   95   96 2   
    99   95  112 1   
   100   97   98 1   
   101   97   99 1   
   102   97  103 1   
   103   98  100 1   
   104   98  104 1   
   105   98  105 1   
   106   99  106 1   
   107   99  107 1   
   108   99  108 1   
   109  100  109 1   
   110  100  110 1   
   111  100  111 1   
   112  112  113 1   
   113  112  119 1   
   114  113  114 1   
   115  113  116 1   
   116  113  120 1   
   117  114  115 2   
   118  114  126 1   
   119  116  117 1   
   120  116  118 1   
   121  116  121 1   
   122  117  123 1   
   123  117  124 1   
   124  117  125 1   
   125  118  122 1   
   126  126  127 1   
   127  126  133 1   
   128  127  128 1   
   129  127  130 1   
   130  127  134 1   
   131  128  129 2   
   132  128  140 1   
   133  130  131 1   
   134  130  132 1   
   135  130  135 1   
   136  131  137 1   
   137  131  138 1   
   138  131  139 1   
   139  132  136 1   
   140  140  141 1   
   141  140  149 1   
   142  141  142 1   
   143  141  144 1   
   144  141  150 1   
   145  142  143 2   
   146  142  162 1   
   147  144  145 1   
   148  144  151 1   
   149  144  152 1   
   150  145  146 1   
   151  145  153 1   
   152  145  154 1   
   153  146  147 1   
   154  146  155 1   
   155  146  156 1   
   156  147  148 1   
   157  147  157 1   
   158  147  158 1   
   159  148  159 1   
   160  148  160 1   
   161  148  161 1   
   162  162  163 1   
   163  162  171 1   
   164  163  164 1   
   165  163  166 1   
   166  163  172 1   
   167  164  165 2   
   168  164  177 1   
   169  166  167 1   
   170  166  173 1   
   171  166  174 1   
   172  167  168 1   
   173  167  175 1   
   174  167  176 1   
   175  168  169 1   
   176  168  170 1   
   177  177  178 1   
   178  177  182 1   
   179  178  179 1   
   180  178  180 1   
   181  178  181 1   
   182  184  185 1   
   183  184  186 1   
   184  187  188 1   
   185  187  189 1   
@<TRIPOS>SUBSTRUCTURE
     1 MOL         1 TEMP              0 ****  ****    0 ROOT
