@<TRIPOS>MOLECULE
MOL
  189   185     1     0     0
SMALL
resp


@<TRIPOS>ATOM
      1 C1          0.2240    3.2320    4.8240 c3        1 MOL     -0.433883
      2 C2         -0.5130    2.8680    3.5130 c         1 MOL      0.642661
      3 O1          0.0820    3.1240    2.4450 o         1 MOL     -0.501003
      4 H1          0.4360    2.3230    5.3850 hc        1 MOL      0.114124
      5 H2          1.1590    3.7400    4.5870 hc        1 MOL      0.114124
      6 H3         -0.4050    3.8900    5.4230 hc        1 MOL      0.114124
      7 N1         -1.6790    2.1480    3.5350 n         1 MOL     -0.649697
      8 C3         -2.3670    1.8080    2.3050 c3        1 MOL      0.421159
      9 C4         -2.9330    3.0690    1.5880 c         1 MOL      0.235112
     10 O2         -3.9730    3.6070    1.9260 o         1 MOL     -0.516855
     11 C5         -3.5480    0.8150    2.6300 c3        1 MOL     -0.375750
     12 C6         -4.3310    0.3600    1.4360 c         1 MOL      0.807907
     13 O3         -3.8620    0.7380    0.3780 o         1 MOL     -0.697943
     14 O4         -5.3740   -0.3050    1.4930 o         1 MOL     -0.697943
     15 H4         -2.0460    1.9210    4.4520 hn        1 MOL      0.345649
     16 H5         -1.6550    1.2470    1.6980 h1        1 MOL     -0.093325
     17 H6         -4.2060    1.1840    3.4070 hc        1 MOL      0.088692
     18 H7         -2.9660   -0.0430    2.9580 hc        1 MOL      0.088692
     19 N2         -2.1490    3.6030    0.6770 n         1 MOL     -0.006896
     20 C7         -2.3680    4.9400    0.0790 c3        1 MOL      0.005497
     21 C8         -3.4090    4.9390   -1.0030 c         1 MOL      0.415942
     22 O5         -3.9910    5.9440   -1.3940 o         1 MOL     -0.577094
     23 C9         -1.0540    5.5480   -0.3530 c3        1 MOL     -0.055524
     24 C10        -0.3890    6.1350    0.8180 c3        1 MOL      0.107894
     25 C11         1.1030    6.0820    0.5080 c3        1 MOL     -0.063966
     26 C12         1.8380    6.7270    1.7020 c3        1 MOL      0.126395
     27 N3          1.4800    8.1520    1.8380 n4        1 MOL     -0.382208
     28 H8         -1.3860    2.9970    0.4200 hn        1 MOL      0.267151
     29 H9         -2.8000    5.6670    0.7720 h1        1 MOL      0.048410
     30 H10        -1.1550    6.1960   -1.2140 hc        1 MOL      0.022157
     31 H11        -0.5270    4.6350   -0.6260 hc        1 MOL      0.022157
     32 H12        -0.5270    5.4760    1.6760 hc        1 MOL     -0.037317
     33 H13        -0.7150    7.1640    0.9550 hc        1 MOL     -0.037317
     34 H14         1.3450    6.6490   -0.3830 hc        1 MOL      0.036266
     35 H15         1.4610    5.0560    0.5190 hc        1 MOL      0.036266
     36 H16         2.8840    6.4910    1.5650 hx        1 MOL      0.041581
     37 H17         1.6880    6.1420    2.6020 hx        1 MOL      0.041581
     38 H18         0.5230    8.2720    2.1160 hn        1 MOL      0.327047
     39 H19         2.0430    8.5350    2.5840 hn        1 MOL      0.327047
     40 H20         1.8020    8.7340    1.0800 hn        1 MOL      0.327047
     41 N4         -3.6910    3.7780   -1.5550 n         1 MOL     -0.059512
     42 C13        -4.6860    3.6040   -2.6130 c3        1 MOL     -0.103456
     43 C14        -5.9820    2.8590   -2.2290 c         1 MOL      0.547708
     44 O6         -6.8120    2.6870   -3.0890 o         1 MOL     -0.517897
     45 C15        -4.1030    3.0250   -3.8880 c3        1 MOL     -0.039714
     46 C16        -3.5330    1.5950   -3.8000 c         1 MOL      0.544767
     47 O7         -3.0820    1.1250   -2.7190 o         1 MOL     -0.597715
     48 O8         -3.5770    0.8740   -4.8260 o         1 MOL     -0.597715
     49 H21        -3.2120    2.9520   -1.2100 hn        1 MOL     -0.057652
     50 H22        -5.0170    4.6050   -2.9110 h1        1 MOL      0.103826
     51 H23        -3.3210    3.7020   -4.2470 hc        1 MOL      0.029997
     52 H24        -4.8470    3.0520   -4.6780 hc        1 MOL      0.029997
     53 N5         -6.1260    2.3590   -0.9530 n         1 MOL     -0.440188
     54 C17        -7.3470    1.7920   -0.3810 c3        1 MOL     -0.065296
     55 C18        -7.7050    0.4140   -0.8480 c         1 MOL      0.459873
     56 O9         -8.8580    0.0330   -0.7310 o         1 MOL     -0.584192
     57 H25        -5.3160    2.2600   -0.3620 hn        1 MOL      0.278356
     58 H26        -8.1410    2.5280   -0.4640 h1        1 MOL      0.093890
     59 H27        -7.2100    1.6690    0.6870 h1        1 MOL      0.093890
     60 N6         -6.7450   -0.3520   -1.3560 n         1 MOL     -0.071567
     61 C19        -6.9110   -1.6430   -2.0000 c3        1 MOL     -0.111773
     62 C20        -7.0220   -2.7440   -0.8980 c         1 MOL      0.421098
     63 O10        -7.3610   -3.9350   -1.2730 o         1 MOL     -0.543915
     64 C21        -5.9420   -2.0550   -3.0360 c3        1 MOL     -0.280660
     65 C22        -4.4520   -2.2280   -2.6120 c         1 MOL      0.726270
     66 O11        -3.7180   -2.8960   -3.3940 o         1 MOL     -0.690610
     67 O12        -4.0010   -1.8300   -1.4970 o         1 MOL     -0.690610
     68 H28        -5.7860   -0.0650   -1.1690 hn        1 MOL      0.146774
     69 H29        -7.8930   -1.6640   -2.4780 h1        1 MOL      0.128526
     70 H30        -6.0530   -1.3800   -3.8910 hc        1 MOL      0.117556
     71 H31        -6.1560   -3.0770   -3.3360 hc        1 MOL      0.117556
     72 N7         -6.8770   -2.4670    0.3780 n         1 MOL     -0.240517
     73 C23        -6.9090   -3.4950    1.4050 c3        1 MOL     -0.127140
     74 C24        -5.5710   -4.0670    1.7880 c         1 MOL      0.568513
     75 O13        -5.6020   -4.9590    2.6980 o         1 MOL     -0.613254
     76 H32        -6.4670   -1.5800    0.6100 hn        1 MOL      0.268487
     77 H33        -7.6010   -4.2900    1.1190 h1        1 MOL      0.097038
     78 H34        -7.3260   -2.9900    2.2770 h1        1 MOL      0.097038
     79 N8         -4.4910   -3.6070    1.2250 n         1 MOL     -0.322411
     80 C25        -3.1220   -4.1710    1.3860 c3        1 MOL      0.025892
     81 C26        -2.0400   -3.1150    1.4400 c         1 MOL      0.495980
     82 O14        -2.3140   -1.9480    1.1030 o         1 MOL     -0.525893
     83 C27        -2.7090   -5.1770    0.2650 c3        1 MOL      0.481023
     84 C28        -3.0470   -6.6550    0.6330 c3        1 MOL     -0.417977
     85 O15        -3.2950   -4.8150   -0.9370 oh        1 MOL     -0.622119
     86 H35        -4.5940   -2.8580    0.5530 hn        1 MOL      0.215146
     87 H36        -2.9990   -4.7260    2.3210 h1        1 MOL      0.042245
     88 H37        -1.6420   -5.0040    0.1730 h1        1 MOL     -0.107030
     89 H38        -3.3170   -3.8600   -0.9850 ho        1 MOL      0.424804
     90 H39        -2.8800   -7.2730   -0.2570 hc        1 MOL      0.110703
     91 H40        -2.4030   -7.1140    1.3830 hc        1 MOL      0.110703
     92 H41        -4.1010   -6.7340    0.8760 hc        1 MOL      0.110703
     93 N9         -0.7800   -3.4330    1.9760 n         1 MOL     -0.541506
     94 C29         0.4730   -2.6580    2.0240 c3        1 MOL      0.050487
     95 C30         1.6330   -3.3920    1.3530 c         1 MOL      0.541434
     96 O16         1.8200   -4.5660    1.6570 o         1 MOL     -0.558426
     97 C31         0.6790   -2.5500    3.5310 c3        1 MOL      0.034720
     98 C32        -0.2560   -1.5090    4.1460 c3        1 MOL      0.053207
     99 C33         2.1290   -2.0430    3.8610 c3        1 MOL     -0.168841
    100 C34        -0.3710   -1.4890    5.6310 c3        1 MOL     -0.235385
    101 H42        -0.6860   -4.3330    2.4170 hn        1 MOL      0.291779
    102 H43         0.5460   -1.6770    1.5410 h1        1 MOL      0.084400
    103 H44         0.6140   -3.5180    4.0220 hc        1 MOL      0.053484
    104 H45        -1.2650   -1.5550    3.7290 hc        1 MOL      0.036342
    105 H46         0.1410   -0.5640    3.7920 hc        1 MOL      0.036342
    106 H47         2.8630   -2.7580    3.4890 hc        1 MOL      0.032924
    107 H48         2.1840   -1.0540    3.4070 hc        1 MOL      0.032924
    108 H49         2.2510   -1.9560    4.9500 hc        1 MOL      0.032924
    109 H50         0.3990   -0.8210    6.0400 hc        1 MOL      0.053682
    110 H51        -1.2820   -1.0060    5.9620 hc        1 MOL      0.053682
    111 H52        -0.2560   -2.4960    6.0460 hc        1 MOL      0.053682
    112 N10         2.3580   -2.6600    0.4880 n         1 MOL     -0.203476
    113 C35         3.6080   -3.0680   -0.2320 c3        1 MOL     -0.002887
    114 C36         4.8480   -2.5990    0.5190 c         1 MOL      0.362596
    115 O17         4.7170   -1.8040    1.4310 o         1 MOL     -0.358063
    116 C37         3.6120   -2.4490   -1.6620 c3        1 MOL      0.104712
    117 C38         2.5670   -2.9980   -2.5820 c3        1 MOL     -0.206036
    118 O18         3.4630   -1.0910   -1.6250 oh        1 MOL     -0.369305
    119 H53         2.1720   -1.6680    0.4570 hn        1 MOL      0.151600
    120 H54         3.6130   -4.1480   -0.4000 h1        1 MOL      0.080486
    121 H55         4.5570   -2.6310   -2.1840 h1        1 MOL      0.002068
    122 H56         2.7940   -0.8960   -2.2800 ho        1 MOL      0.350464
    123 H57         2.7030   -2.6480   -3.6000 hc        1 MOL      0.068567
    124 H58         2.6960   -4.0780   -2.6120 hc        1 MOL      0.068567
    125 H59         1.5270   -2.9580   -2.2490 hc        1 MOL      0.068567
    126 N11         6.0220   -3.0780    0.0750 n         1 MOL     -0.382951
    127 C39         7.3360   -2.5550    0.4750 c3        1 MOL      0.076934
    128 C40         7.3860   -1.0520    0.1890 c         1 MOL      0.092755
    129 O19         7.9350   -0.3050    1.0190 o         1 MOL     -0.448002
    130 C41         8.4730   -3.2560   -0.2910 c3        1 MOL      0.280251
    131 C42         8.8560   -4.6800    0.0640 c3        1 MOL     -0.328327
    132 O20         8.1970   -3.1440   -1.6720 oh        1 MOL     -0.703773
    133 H60         5.9730   -3.8820   -0.5410 hn        1 MOL      0.282673
    134 H61         7.6790   -2.7570    1.4870 h1        1 MOL      0.099089
    135 H62         9.3540   -2.6460   -0.0630 h1        1 MOL      0.033033
    136 H63         8.7190   -3.8080   -2.1260 ho        1 MOL      0.430540
    137 H64         8.8340   -4.7750    1.1470 hc        1 MOL      0.100401
    138 H65         8.1050   -5.3830   -0.3010 hc        1 MOL      0.100401
    139 H66         9.8430   -4.9220   -0.3080 hc        1 MOL      0.100401
    140 N12         6.8930   -0.5870   -0.9960 n         1 MOL      0.225994
    141 C43         7.0280    0.8650   -1.3900 c3        1 MOL     -0.035854
    142 C44         6.2010    1.8160   -0.4580 c         1 MOL      0.430245
    143 O21         6.6690    2.8810   -0.1690 o         1 MOL     -0.508841
    144 C45         6.6530    0.8030   -2.9200 c3        1 MOL     -0.069036
    145 C46         7.6740   -0.0810   -3.6800 c3        1 MOL      0.031333
    146 C47         9.1900   -0.1520   -3.4170 c3        1 MOL     -0.178264
    147 C48         9.8380    1.0620   -4.1020 c3        1 MOL      0.260123
    148 N13        11.2780    1.0530   -3.9130 n4        1 MOL     -0.413500
    149 H67         6.5180   -1.2810   -1.6290 hn        1 MOL      0.158846
    150 H68         8.0620    1.1560   -1.1750 h1        1 MOL      0.051452
    151 H69         6.7060    1.8170   -3.3400 hc        1 MOL      0.030577
    152 H70         5.6430    0.4230   -3.0860 hc        1 MOL      0.030577
    153 H71         7.5420    0.0780   -4.7480 hc        1 MOL      0.013330
    154 H72         7.3540   -1.1190   -3.5620 hc        1 MOL      0.013330
    155 H73         9.6360   -0.9880   -3.9420 hc        1 MOL      0.051672
    156 H74         9.4170   -0.0590   -2.3530 hc        1 MOL      0.051672
    157 H75         9.4210    1.9860   -3.7180 hx        1 MOL      0.028212
    158 H76         9.5560    1.1410   -5.1450 hx        1 MOL      0.028212
    159 H77        11.6800    1.9750   -3.9520 hn        1 MOL      0.283172
    160 H78        11.4850    0.7020   -2.9820 hn        1 MOL      0.283172
    161 H79        11.7020    0.4710   -4.6240 hn        1 MOL      0.283172
    162 N14         4.9900    1.4310   -0.0870 n         1 MOL     -0.108431
    163 C49         4.0960    2.1280    0.8590 c3        1 MOL     -0.209837
    164 C50         4.8670    2.3150    2.1870 c         1 MOL      0.518614
    165 O22         5.1970    3.3530    2.7340 o         1 MOL     -0.541679
    166 C51         2.7580    1.4130    0.9310 c3        1 MOL      0.186489
    167 C52         1.9050    1.7550   -0.3400 c3        1 MOL     -0.056187
    168 C53         0.4780    1.1920   -0.2780 c         1 MOL      0.675504
    169 O23        -0.5090    1.7650   -0.7950 o         1 MOL     -0.736979
    170 O24         0.2870    0.0350    0.1780 o         1 MOL     -0.736979
    171 H80         4.7560    0.5120   -0.4360 hn        1 MOL     -0.047889
    172 H81         3.8090    3.1260    0.5130 h1        1 MOL      0.107828
    173 H82         2.3050    1.7820    1.8480 hc        1 MOL     -0.022320
    174 H83         2.7570    0.3280    1.0720 hc        1 MOL     -0.022320
    175 H84         2.4360    1.2870   -1.1640 hc        1 MOL     -0.009331
    176 H85         1.8750    2.8240   -0.5670 hc        1 MOL     -0.009331
    177 N15         5.1470    1.1370    2.7860 n         1 MOL     -0.119392
    178 C54         5.9040    1.0790    4.0890 c3        1 MOL     -0.185548
    179 H86         5.4250    0.3620    4.7560 h1        1 MOL      0.090654
    180 H87         6.9310    0.7680    3.9000 h1        1 MOL      0.090654
    181 H88         5.9030    2.0640    4.5560 h1        1 MOL      0.090654
    182 H89         4.6760    0.3730    2.3300 hn        1 MOL      0.103116
    183 Ca1        -2.0350   -0.3120   -0.9940 Ca        1 MOL      1.733279
    184 O25        -1.2910   -2.7750   -1.6070 oh        1 MOL     -0.854502
    185 H90        -0.4410   -3.1900   -1.7640 ho        1 MOL      0.405548
    186 H91        -1.8830   -3.2380   -2.2000 ho        1 MOL      0.405548
    187 O26        -0.3520   -0.3620   -2.9940 oh        1 MOL     -0.854502
    188 H92         0.5480   -0.1510   -3.2270 ho        1 MOL      0.405548
    189 H93        -0.8270   -0.3450   -3.8250 ho        1 MOL      0.405548
@<TRIPOS>BOND
     1    1    2 1   
     2    1    4 1   
     3    1    5 1   
     4    1    6 1   
     5    2    3 2   
     6    2    7 1   
     7    7    8 1   
     8    7   15 1   
     9    8    9 1   
    10    8   11 1   
    11    8   16 1   
    12    9   10 2   
    13    9   19 1   
    14   11   12 1   
    15   11   17 1   
    16   11   18 1   
    17   12   13 1   
    18   12   14 1   
    19   19   20 1   
    20   19   28 1   
    21   20   21 1   
    22   20   23 1   
    23   20   29 1   
    24   21   22 2   
    25   21   41 1   
    26   23   24 1   
    27   23   30 1   
    28   23   31 1   
    29   24   25 1   
    30   24   32 1   
    31   24   33 1   
    32   25   26 1   
    33   25   34 1   
    34   25   35 1   
    35   26   27 1   
    36   26   36 1   
    37   26   37 1   
    38   27   38 1   
    39   27   39 1   
    40   27   40 1   
    41   41   42 1   
    42   41   49 1   
    43   42   43 1   
    44   42   45 1   
    45   42   50 1   
    46   43   44 2   
    47   43   53 1   
    48   45   46 1   
    49   45   51 1   
    50   45   52 1   
    51   46   47 1   
    52   46   48 1   
    53   53   54 1   
    54   53   57 1   
    55   54   55 1   
    56   54   58 1   
    57   54   59 1   
    58   55   56 2   
    59   55   60 1   
    60   60   61 1   
    61   60   68 1   
    62   61   62 1   
    63   61   64 1   
    64   61   69 1   
    65   62   63 2   
    66   62   72 1   
    67   64   65 1   
    68   64   70 1   
    69   64   71 1   
    70   65   66 1   
    71   65   67 1   
    72   72   73 1   
    73   72   76 1   
    74   73   74 1   
    75   73   77 1   
    76   73   78 1   
    77   74   75 2   
    78   74   79 1   
    79   79   80 1   
    80   79   86 1   
    81   80   81 1   
    82   80   83 1   
    83   80   87 1   
    84   81   82 2   
    85   81   93 1   
    86   83   84 1   
    87   83   85 1   
    88   83   88 1   
    89   84   90 1   
    90   84   91 1   
    91   84   92 1   
    92   85   89 1   
    93   93   94 1   
    94   93  101 1   
    95   94   95 1   
    96   94   97 1   
    97   94  102 1   
    98   95   96 2   
    99   95  112 1   
   100   97   98 1   
   101   97   99 1   
   102   97  103 1   
   103   98  100 1   
   104   98  104 1   
   105   98  105 1   
   106   99  106 1   
   107   99  107 1   
   108   99  108 1   
   109  100  109 1   
   110  100  110 1   
   111  100  111 1   
   112  112  113 1   
   113  112  119 1   
   114  113  114 1   
   115  113  116 1   
   116  113  120 1   
   117  114  115 2   
   118  114  126 1   
   119  116  117 1   
   120  116  118 1   
   121  116  121 1   
   122  117  123 1   
   123  117  124 1   
   124  117  125 1   
   125  118  122 1   
   126  126  127 1   
   127  126  133 1   
   128  127  128 1   
   129  127  130 1   
   130  127  134 1   
   131  128  129 2   
   132  128  140 1   
   133  130  131 1   
   134  130  132 1   
   135  130  135 1   
   136  131  137 1   
   137  131  138 1   
   138  131  139 1   
   139  132  136 1   
   140  140  141 1   
   141  140  149 1   
   142  141  142 1   
   143  141  144 1   
   144  141  150 1   
   145  142  143 2   
   146  142  162 1   
   147  144  145 1   
   148  144  151 1   
   149  144  152 1   
   150  145  146 1   
   151  145  153 1   
   152  145  154 1   
   153  146  147 1   
   154  146  155 1   
   155  146  156 1   
   156  147  148 1   
   157  147  157 1   
   158  147  158 1   
   159  148  159 1   
   160  148  160 1   
   161  148  161 1   
   162  162  163 1   
   163  162  171 1   
   164  163  164 1   
   165  163  166 1   
   166  163  172 1   
   167  164  165 2   
   168  164  177 1   
   169  166  167 1   
   170  166  173 1   
   171  166  174 1   
   172  167  168 1   
   173  167  175 1   
   174  167  176 1   
   175  168  169 1   
   176  168  170 1   
   177  177  178 1   
   178  177  182 1   
   179  178  179 1   
   180  178  180 1   
   181  178  181 1   
   182  184  185 1   
   183  184  186 1   
   184  187  188 1   
   185  187  189 1   
@<TRIPOS>SUBSTRUCTURE
     1 MOL         1 TEMP              0 ****  ****    0 ROOT
