@<TRIPOS>MOLECULE
MOL
  186   183     1     0     0
SMALL
resp


@<TRIPOS>ATOM
      1 C1          2.2090   -2.5530    6.6190 c3        1 MOL     -0.465964
      2 C2          2.1890   -2.2740    5.0780 c         1 MOL      0.762662
      3 O1          1.6140   -1.3410    4.5970 o         1 MOL     -0.585167
      4 H1          1.2360   -2.9300    6.9330 hc        1 MOL      0.114932
      5 H2          2.9750   -3.2950    6.8450 hc        1 MOL      0.114932
      6 H3          2.4290   -1.6280    7.1540 hc        1 MOL      0.114932
      7 N1          2.8050   -3.1940    4.3280 n         1 MOL     -0.613142
      8 C3          3.3680   -2.8860    3.0590 c3        1 MOL      0.078709
      9 C4          3.5120   -4.1210    2.1870 c         1 MOL      0.542065
     10 O2          4.0700   -5.1210    2.6320 o         1 MOL     -0.592969
     11 C5          4.7280   -2.2300    3.2210 c3        1 MOL     -0.314268
     12 C6          5.2320   -1.6750    1.8830 c         1 MOL      0.745803
     13 O3          6.3970   -1.2860    1.8510 o         1 MOL     -0.687661
     14 O4          4.5090   -1.5370    0.8810 o         1 MOL     -0.687661
     15 H4          3.1990   -4.0200    4.7370 hn        1 MOL      0.322210
     16 H5          2.8150   -2.1400    2.4810 h1        1 MOL      0.139805
     17 H6          5.4480   -2.9250    3.6750 hc        1 MOL      0.064847
     18 H7          4.6350   -1.4640    3.9870 hc        1 MOL      0.064847
     19 N2          2.9660   -4.0880    0.9630 n         1 MOL     -0.191623
     20 C7          2.9970   -5.2480    0.0590 c3        1 MOL     -0.056031
     21 C8          3.9870   -5.2190   -1.1070 c         1 MOL      0.447231
     22 O5          4.3630   -6.2470   -1.6170 o         1 MOL     -0.546200
     23 C9          1.5760   -5.5800   -0.4040 c3        1 MOL      0.230544
     24 C10         1.1590   -4.5130   -1.4560 c3        1 MOL     -0.054313
     25 C11         0.5720   -5.8230    0.8000 c3        1 MOL     -0.329919
     26 C12        -0.3430   -4.4930   -1.8140 c3        1 MOL     -0.275800
     27 H8          2.4770   -3.2650    0.6310 hn        1 MOL      0.146718
     28 H9          3.2750   -6.1600    0.5740 h1        1 MOL      0.065738
     29 H10         1.6350   -6.5480   -0.9040 hc        1 MOL     -0.039202
     30 H11         1.7180   -4.6710   -2.3730 hc        1 MOL      0.063535
     31 H12         1.4230   -3.5180   -1.0820 hc        1 MOL      0.063535
     32 H13         1.0380   -6.4750    1.5460 hc        1 MOL      0.076862
     33 H14         0.3870   -4.8200    1.1890 hc        1 MOL      0.076862
     34 H15        -0.3760   -6.1970    0.4140 hc        1 MOL      0.076862
     35 H16        -0.4760   -3.8010   -2.6520 hc        1 MOL      0.069840
     36 H17        -0.7790   -5.4520   -2.0650 hc        1 MOL      0.069840
     37 H18        -0.9810   -4.1350   -1.0070 hc        1 MOL      0.069840
     38 N3          4.2870   -3.9770   -1.6100 n         1 MOL     -0.243840
     39 C13         4.8670   -3.7350   -2.8970 c3        1 MOL     -0.021468
     40 C14         6.2250   -2.9850   -2.7880 c         1 MOL      0.390314
     41 O6          6.9500   -2.9200   -3.8360 o         1 MOL     -0.567506
     42 C15         3.8140   -2.9180   -3.6930 c3        1 MOL      0.011051
     43 C16         3.2620   -1.6050   -3.0220 c         1 MOL      0.591648
     44 O7          3.8080   -1.1380   -2.0070 o         1 MOL     -0.636753
     45 O8          2.2670   -1.1030   -3.5630 o         1 MOL     -0.636753
     46 H19         3.9220   -3.1200   -1.2230 hn        1 MOL      0.059108
     47 H20         5.1140   -4.6810   -3.3730 h1        1 MOL      0.083254
     48 H21         2.9870   -3.5700   -3.9460 hc        1 MOL     -0.000445
     49 H22         4.3020   -2.6290   -4.6310 hc        1 MOL     -0.000445
     50 N4          6.5050   -2.3830   -1.6380 n         1 MOL     -0.148334
     51 C17         7.6730   -1.6070   -1.4500 c3        1 MOL     -0.282567
     52 C18         7.5200   -0.1360   -1.9240 c         1 MOL      0.593615
     53 O9          8.5200    0.5020   -2.0990 o         1 MOL     -0.610712
     54 H23         5.8170   -2.4810   -0.9110 hn        1 MOL      0.179192
     55 H24         8.4900   -2.1720   -1.8840 h1        1 MOL      0.122230
     56 H25         7.8020   -1.5690   -0.3650 h1        1 MOL      0.122230
     57 N5          6.3230    0.4100   -2.2180 n         1 MOL     -0.141350
     58 C19         6.2080    1.6830   -2.9930 c3        1 MOL     -0.289085
     59 C20         6.4080    2.9970   -2.1360 c         1 MOL      0.606980
     60 O10         6.8740    4.0430   -2.6400 o         1 MOL     -0.585940
     61 C21         4.8540    1.7060   -3.7090 c3        1 MOL      0.005643
     62 C22         3.6430    1.9220   -2.7930 c         1 MOL      0.616410
     63 O11         3.6930    1.7110   -1.5480 o         1 MOL     -0.692888
     64 O12         2.5470    2.3730   -3.2710 o         1 MOL     -0.692888
     65 H26         5.4610    0.0320   -1.8310 hn        1 MOL      0.180123
     66 H27         6.9790    1.5840   -3.7580 h1        1 MOL      0.132968
     67 H28         4.6210    0.7890   -4.2550 hc        1 MOL      0.029637
     68 H29         4.8710    2.5020   -4.4580 hc        1 MOL      0.029637
     69 N6          6.0710    2.8760   -0.8120 n         1 MOL     -0.235816
     70 C23         6.4210    3.9640    0.1980 c3        1 MOL     -0.024967
     71 C24         5.1990    4.6390    0.8460 c         1 MOL      0.500466
     72 O13         5.3770    5.7200    1.4590 o         1 MOL     -0.593435
     73 H30         5.6520    2.0270   -0.4650 hn        1 MOL      0.071565
     74 H31         7.0720    4.7100   -0.2640 h1        1 MOL      0.050128
     75 H32         6.9520    3.5290    1.0380 h1        1 MOL      0.050128
     76 N7          4.0170    4.0140    0.7090 n         1 MOL     -0.369749
     77 C25         2.7320    4.6040    1.1410 c3        1 MOL      0.243282
     78 C26         1.8110    3.4360    1.4490 c         1 MOL      0.358799
     79 O14         1.9500    2.3730    0.8710 o         1 MOL     -0.591416
     80 C27         2.2130    5.4740    0.0160 c3        1 MOL     -0.108674
     81 C28         2.7680    6.8460   -0.0400 c3        1 MOL     -0.474234
     82 C29         1.8990    7.8150   -0.8450 c         1 MOL      0.707249
     83 N8          1.9330    7.8000   -2.1360 n         1 MOL     -0.803581
     84 O15         1.1320    8.7010   -0.3850 o         1 MOL     -0.609866
     85 H33         4.0320    3.0710    0.3320 hn        1 MOL      0.201369
     86 H34         2.8820    5.1950    2.0450 h1        1 MOL      0.008502
     87 H35         1.1750    5.6610    0.2840 hc        1 MOL      0.110412
     88 H36         2.2670    5.0130   -0.9730 hc        1 MOL      0.110412
     89 H37         3.7420    6.8740   -0.5320 hc        1 MOL      0.161256
     90 H38         2.8540    7.1420    1.0010 hc        1 MOL      0.161256
     91 H39         2.4830    7.0970   -2.6150 hn        1 MOL      0.370364
     92 H40         1.3090    8.3770   -2.6800 hn        1 MOL      0.370364
     93 N9          0.8180    3.7600    2.2700 n         1 MOL     -0.499973
     94 C30        -0.3040    2.7740    2.4790 c3        1 MOL      0.038199
     95 C31        -1.3940    3.1500    1.5310 c         1 MOL      0.591497
     96 O16        -1.8070    4.2760    1.4710 o         1 MOL     -0.608342
     97 C32        -0.7680    2.6390    3.9330 c3        1 MOL      0.142758
     98 C33        -2.0010    1.7700    4.0930 c3        1 MOL     -0.272389
     99 C34         0.4000    1.9200    4.6880 c3        1 MOL     -0.272389
    100 H41         0.7140    4.7250    2.5480 hn        1 MOL      0.312546
    101 H42         0.0710    1.8050    2.1550 h1        1 MOL      0.174508
    102 H43        -0.9700    3.6520    4.2910 hc        1 MOL     -0.001467
    103 H44        -2.1190    1.5590    5.1640 hc        1 MOL      0.064093
    104 H45        -2.8810    2.3350    3.7920 hc        1 MOL      0.064093
    105 H46        -1.8780    0.8450    3.5250 hc        1 MOL      0.064093
    106 H47         1.3290    2.4890    4.5640 hc        1 MOL      0.064093
    107 H48         0.2480    2.0000    5.7640 hc        1 MOL      0.064093
    108 H49         0.5230    0.8890    4.3680 hc        1 MOL      0.064093
    109 N10        -1.8870    2.1690    0.7610 n         1 MOL     -0.228991
    110 C35        -2.9590    2.2800   -0.2640 c3        1 MOL     -0.066345
    111 C36        -4.2690    1.7000    0.2330 c         1 MOL      0.571786
    112 O17        -4.3640    0.9740    1.1900 o         1 MOL     -0.504807
    113 C37        -2.3560    1.5870   -1.4530 c3        1 MOL     -0.182859
    114 C38        -3.3900    1.2720   -2.5190 c         1 MOL      0.677008
    115 N11        -3.9770    2.2730   -3.0890 n         1 MOL     -0.775131
    116 O18        -3.5480    0.1400   -2.9150 o         1 MOL     -0.495950
    117 H50        -1.4770    1.2750    0.9580 hn        1 MOL      0.188087
    118 H51        -3.1050    3.3100   -0.5860 h1        1 MOL      0.063093
    119 H52        -1.8380    0.6480   -1.2320 hc        1 MOL      0.102512
    120 H53        -1.6020    2.2050   -1.9410 hc        1 MOL      0.102512
    121 H54        -3.8840    3.2080   -2.7320 hn        1 MOL      0.347487
    122 H55        -4.5400    2.1540   -3.9110 hn        1 MOL      0.347487
    123 N12        -5.4100    2.0200   -0.4660 n         1 MOL     -0.577207
    124 C39        -6.7920    1.4930   -0.2650 c3        1 MOL      0.305807
    125 C40        -6.8460   -0.0790   -0.2510 c         1 MOL      0.561585
    126 O19        -7.6400   -0.6830    0.4870 o         1 MOL     -0.526183
    127 C41        -7.6640    1.9860   -1.4190 c3        1 MOL     -0.244930
    128 C42        -9.0900    1.8330   -1.0240 ca        1 MOL      0.140286
    129 C43        -9.6830    2.2810    0.1740 ca        1 MOL     -0.246782
    130 C44        -9.9960    1.2900   -2.0270 ca        1 MOL     -0.246782
    131 C45       -11.0400    2.0500    0.4220 ca        1 MOL     -0.209630
    132 C46       -11.2930    1.0130   -1.7160 ca        1 MOL     -0.209630
    133 C47       -11.8790    1.3880   -0.4770 ca        1 MOL      0.355149
    134 O20       -13.1710    1.0330   -0.2360 oh        1 MOL     -0.595226
    135 H56        -5.3050    2.7310   -1.1780 hn        1 MOL      0.246596
    136 H57        -7.2370    1.7480    0.6940 h1        1 MOL     -0.018989
    137 H58        -7.4490    1.3260   -2.2610 hc        1 MOL      0.082275
    138 H59        -7.3920    2.9850   -1.7700 hc        1 MOL      0.082275
    139 H60        -9.1070    2.8070    0.9220 ha        1 MOL      0.161775
    140 H61        -9.5540    1.0290   -2.9740 ha        1 MOL      0.161775
    141 H62       -11.4520    2.3860    1.3610 ha        1 MOL      0.127614
    142 H63       -11.9150    0.3980   -2.3600 ha        1 MOL      0.127614
    143 H64       -13.6530    0.4980   -0.8670 ho        1 MOL      0.428922
    144 N13        -5.9900   -0.7690   -1.0350 n         1 MOL     -0.232065
    145 C48        -5.8240   -2.2150   -1.0630 c3        1 MOL     -0.052088
    146 C49        -4.8250   -2.7300   -0.0340 c         1 MOL      0.437364
    147 O21        -4.6710   -3.9640    0.1110 o         1 MOL     -0.544137
    148 C50        -5.4730   -2.6570   -2.4900 c3        1 MOL      0.104356
    149 C51        -6.4440   -2.1160   -3.6050 c3        1 MOL     -0.152250
    150 C52        -7.5950   -3.0660   -3.8000 c         1 MOL      0.756212
    151 O22        -8.4010   -3.2170   -2.8060 o         1 MOL     -0.745788
    152 O23        -7.8380   -3.6390   -4.8500 o         1 MOL     -0.745788
    153 H65        -5.4200   -0.2420   -1.6870 hn        1 MOL      0.123066
    154 H66        -6.7680   -2.7320   -0.9030 h1        1 MOL      0.083840
    155 H67        -5.4340   -3.7470   -2.5800 hc        1 MOL     -0.000647
    156 H68        -4.4620   -2.2860   -2.6530 hc        1 MOL     -0.000647
    157 H69        -5.8820   -2.0370   -4.5330 hc        1 MOL     -0.014959
    158 H70        -6.9030   -1.1700   -3.3300 hc        1 MOL     -0.014959
    159 N14        -4.2870   -1.8880    0.8910 n         1 MOL     -0.214335
    160 C53        -3.3850   -2.2070    2.0550 c3        1 MOL     -0.141252
    161 C54        -4.0500   -1.7950    3.3820 c         1 MOL      0.400411
    162 O24        -3.3490   -1.8090    4.4180 o         1 MOL     -0.555518
    163 C55        -2.0040   -1.4980    1.9690 c3        1 MOL     -0.050059
    164 C56        -1.1790   -2.0300    0.7930 c3        1 MOL     -0.119899
    165 C57         0.1210   -1.3140    0.6170 c         1 MOL      0.878345
    166 O25         1.2040   -1.9020    0.6840 o         1 MOL     -0.858289
    167 O26         0.2040   -0.0450    0.5400 o         1 MOL     -0.858289
    168 H71        -4.4750   -0.9060    0.7150 hn        1 MOL      0.138246
    169 H72        -3.1190   -3.2600    2.0230 h1        1 MOL      0.143011
    170 H73        -1.4420   -1.5960    2.8980 hc        1 MOL      0.101143
    171 H74        -2.0790   -0.4150    1.9710 hc        1 MOL      0.101143
    172 H75        -1.6360   -1.7670   -0.1650 hc        1 MOL      0.042863
    173 H76        -1.0680   -3.1130    0.8660 hc        1 MOL      0.042863
    174 N15        -5.2790   -1.3760    3.4990 n         1 MOL     -0.130454
    175 C58        -5.9980   -0.9110    4.7690 c3        1 MOL     -0.097866
    176 H77        -6.6020   -1.7280    5.1640 h1        1 MOL      0.067556
    177 H78        -5.2620   -0.6110    5.5160 h1        1 MOL      0.067556
    178 H79        -6.6440   -0.0650    4.5330 h1        1 MOL      0.067556
    179 H80        -5.7680   -1.2470    2.6230 hn        1 MOL      0.130875
    180 Ca1         2.7050    0.0270    0.0650 Ca        1 MOL      1.737656
    181 O27         2.8180    0.4110    2.8070 oh        1 MOL     -0.539792
    182 H81         2.1670   -0.0230    3.3450 ho        1 MOL      0.298247
    183 H82         3.4880    0.6980    3.4360 ho        1 MOL      0.298247
    184 O28         4.9810    1.1270    1.1410 oh        1 MOL     -0.539792
    185 H83         5.6160    0.4700    1.4140 ho        1 MOL      0.298247
    186 H84         4.6970    1.5330    1.9590 ho        1 MOL      0.298247
@<TRIPOS>BOND
     1    1    2 1   
     2    1    4 1   
     3    1    5 1   
     4    1    6 1   
     5    2    3 2   
     6    2    7 1   
     7    7    8 1   
     8    7   15 1   
     9    8    9 1   
    10    8   11 1   
    11    8   16 1   
    12    9   10 2   
    13    9   19 1   
    14   11   12 1   
    15   11   17 1   
    16   11   18 1   
    17   12   13 1   
    18   12   14 1   
    19   19   20 1   
    20   19   27 1   
    21   20   21 1   
    22   20   23 1   
    23   20   28 1   
    24   21   22 2   
    25   21   38 1   
    26   23   24 1   
    27   23   25 1   
    28   23   29 1   
    29   24   26 1   
    30   24   30 1   
    31   24   31 1   
    32   25   32 1   
    33   25   33 1   
    34   25   34 1   
    35   26   35 1   
    36   26   36 1   
    37   26   37 1   
    38   38   39 1   
    39   38   46 1   
    40   39   40 1   
    41   39   42 1   
    42   39   47 1   
    43   40   41 2   
    44   40   50 1   
    45   42   43 1   
    46   42   48 1   
    47   42   49 1   
    48   43   44 1   
    49   43   45 1   
    50   50   51 1   
    51   50   54 1   
    52   51   52 1   
    53   51   55 1   
    54   51   56 1   
    55   52   53 2   
    56   52   57 1   
    57   57   58 1   
    58   57   65 1   
    59   58   59 1   
    60   58   61 1   
    61   58   66 1   
    62   59   60 2   
    63   59   69 1   
    64   61   62 1   
    65   61   67 1   
    66   61   68 1   
    67   62   63 1   
    68   62   64 1   
    69   69   70 1   
    70   69   73 1   
    71   70   71 1   
    72   70   74 1   
    73   70   75 1   
    74   71   72 2   
    75   71   76 1   
    76   76   77 1   
    77   76   85 1   
    78   77   78 1   
    79   77   80 1   
    80   77   86 1   
    81   78   79 2   
    82   78   93 1   
    83   80   81 1   
    84   80   87 1   
    85   80   88 1   
    86   81   82 1   
    87   81   89 1   
    88   81   90 1   
    89   82   83 1   
    90   82   84 2   
    91   83   91 1   
    92   83   92 1   
    93   93   94 1   
    94   93  100 1   
    95   94   95 1   
    96   94   97 1   
    97   94  101 1   
    98   95   96 2   
    99   95  109 1   
   100   97   98 1   
   101   97   99 1   
   102   97  102 1   
   103   98  103 1   
   104   98  104 1   
   105   98  105 1   
   106   99  106 1   
   107   99  107 1   
   108   99  108 1   
   109  109  110 1   
   110  109  117 1   
   111  110  111 1   
   112  110  113 1   
   113  110  118 1   
   114  111  112 2   
   115  111  123 1   
   116  113  114 1   
   117  113  119 1   
   118  113  120 1   
   119  114  115 1   
   120  114  116 2   
   121  115  121 1   
   122  115  122 1   
   123  123  124 1   
   124  123  135 1   
   125  124  125 1   
   126  124  127 1   
   127  124  136 1   
   128  125  126 2   
   129  125  144 1   
   130  127  128 1   
   131  127  137 1   
   132  127  138 1   
   133  128  129 ar  
   134  128  130 ar  
   135  129  131 ar  
   136  129  139 1   
   137  130  132 ar  
   138  130  140 1   
   139  131  133 ar  
   140  131  141 1   
   141  132  133 ar  
   142  132  142 1   
   143  133  134 1   
   144  134  143 1   
   145  144  145 1   
   146  144  153 1   
   147  145  146 1   
   148  145  148 1   
   149  145  154 1   
   150  146  147 2   
   151  146  159 1   
   152  148  149 1   
   153  148  155 1   
   154  148  156 1   
   155  149  150 1   
   156  149  157 1   
   157  149  158 1   
   158  150  151 1   
   159  150  152 1   
   160  159  160 1   
   161  159  168 1   
   162  160  161 1   
   163  160  163 1   
   164  160  169 1   
   165  161  162 2   
   166  161  174 1   
   167  163  164 1   
   168  163  170 1   
   169  163  171 1   
   170  164  165 1   
   171  164  172 1   
   172  164  173 1   
   173  165  166 1   
   174  165  167 1   
   175  174  175 1   
   176  174  179 1   
   177  175  176 1   
   178  175  177 1   
   179  175  178 1   
   180  181  182 1   
   181  181  183 1   
   182  184  185 1   
   183  184  186 1   
@<TRIPOS>SUBSTRUCTURE
     1 MOL         1 TEMP              0 ****  ****    0 ROOT
