@<TRIPOS>MOLECULE
MOL
  179   176     1     0     0
SMALL
resp


@<TRIPOS>ATOM
      1 C1          2.0780    3.1470    4.1720 c3        1 MOL     -0.540218
      2 C2          1.1780    3.0880    2.9480 c         1 MOL      0.679923
      3 O1          1.6830    3.0460    1.7860 o         1 MOL     -0.590274
      4 H1          2.7010    4.0410    4.1220 hc        1 MOL      0.140075
      5 H2          1.4660    3.1830    5.0730 hc        1 MOL      0.140075
      6 H3          2.7150    2.2630    4.1980 hc        1 MOL      0.140075
      7 N1         -0.0930    2.9100    3.2250 n         1 MOL     -0.582518
      8 C3         -1.1460    2.6690    2.2040 c3        1 MOL      0.112316
      9 C4         -1.7770    4.0220    1.6890 c         1 MOL      0.516651
     10 O2         -2.9380    4.2760    1.9010 o         1 MOL     -0.439728
     11 C5         -2.2350    1.7940    2.7900 c3        1 MOL     -0.016631
     12 C6         -3.1280    1.2740    1.6510 c         1 MOL      0.624789
     13 O3         -4.3160    1.1780    1.8140 o         1 MOL     -0.685682
     14 O4         -2.6700    1.0670    0.4990 o         1 MOL     -0.685682
     15 H4         -0.3620    2.7500    4.1850 hn        1 MOL      0.325945
     16 H5         -0.6980    2.1660    1.3430 h1        1 MOL     -0.017221
     17 H6         -2.7740    2.4550    3.4810 hc        1 MOL      0.019168
     18 H7         -1.9970    0.9840    3.4730 hc        1 MOL      0.019168
     19 N2         -0.9570    4.8520    0.9500 n         1 MOL     -0.515911
     20 C7         -1.2200    6.2350    0.5310 c3        1 MOL      0.095624
     21 C8         -2.2450    6.2970   -0.5660 c         1 MOL      0.361867
     22 O5         -2.9750    7.2910   -0.6080 o         1 MOL     -0.531787
     23 C9          0.0540    6.8870    0.0450 c3        1 MOL     -0.312012
     24 C10         1.1750    7.1800    1.0160 c3        1 MOL      0.045123
     25 C11         2.3680    7.8280    0.3260 c3        1 MOL     -0.217201
     26 C12         3.4350    8.0210    1.4700 c3        1 MOL      0.035607
     27 N3          4.1520    6.7630    1.6650 n4        1 MOL     -0.421360
     28 H8         -0.0660    4.5170    0.6220 hn        1 MOL      0.389690
     29 H9         -1.7450    6.8010    1.2990 h1        1 MOL      0.110390
     30 H10        -0.2420    7.8770   -0.2860 hc        1 MOL      0.106660
     31 H11         0.5400    6.3040   -0.7470 hc        1 MOL      0.106660
     32 H12         1.3880    6.2510    1.5410 hc        1 MOL      0.027851
     33 H13         0.7310    7.9130    1.6880 hc        1 MOL      0.027851
     34 H14         2.0570    8.8270    0.0330 hc        1 MOL      0.120964
     35 H15         2.8060    7.3260   -0.5360 hc        1 MOL      0.120964
     36 H16         2.9780    8.3910    2.3920 hx        1 MOL      0.088074
     37 H17         4.2050    8.7390    1.1930 hx        1 MOL      0.088074
     38 H18         4.5480    6.4900    0.7710 hn        1 MOL      0.349710
     39 H19         4.8790    6.9220    2.3390 hn        1 MOL      0.349710
     40 H20         3.5400    6.0540    2.0540 hn        1 MOL      0.349710
     41 N4         -2.3920    5.2000   -1.2890 n         1 MOL     -0.109143
     42 C13        -3.3890    4.8810   -2.2910 c3        1 MOL      0.061038
     43 C14        -4.6560    4.1950   -1.8190 c         1 MOL      0.395215
     44 O6         -5.7140    4.3150   -2.4600 o         1 MOL     -0.536665
     45 C15        -2.6930    4.0600   -3.3530 c3        1 MOL     -0.309304
     46 C16        -2.2030    2.7090   -2.7860 c         1 MOL      0.782164
     47 O7         -1.0640    2.5420   -2.3820 o         1 MOL     -0.728734
     48 O8         -3.0480    1.7870   -2.7510 o         1 MOL     -0.728734
     49 H21        -1.5940    4.5940   -1.1670 hn        1 MOL      0.129112
     50 H22        -3.7440    5.7870   -2.7890 h1        1 MOL      0.080018
     51 H23        -1.8090    4.6200   -3.6620 hc        1 MOL      0.072624
     52 H24        -3.3980    3.8390   -4.1580 hc        1 MOL      0.072624
     53 N5         -4.7100    3.6560   -0.5860 n         1 MOL      0.025457
     54 C17        -5.9520    3.4040    0.0950 c3        1 MOL     -0.283479
     55 C18        -6.6370    2.0880   -0.2970 c         1 MOL      0.537354
     56 O9         -7.7770    1.7990    0.0880 o         1 MOL     -0.562655
     57 H25        -3.8710    3.6970   -0.0210 hn        1 MOL      0.062679
     58 H26        -6.6350    4.2260   -0.0970 h1        1 MOL      0.130998
     59 H27        -5.8570    3.3410    1.1800 h1        1 MOL      0.130998
     60 N6         -5.8840    1.2290   -1.0390 n         1 MOL     -0.301802
     61 C19        -6.4710   -0.0660   -1.3810 c3        1 MOL      0.070601
     62 C20        -6.4590   -1.1680   -0.2020 c         1 MOL      0.206989
     63 O10        -7.0500   -2.2070   -0.4010 o         1 MOL     -0.471687
     64 C21        -5.8290   -0.5640   -2.6250 c3        1 MOL     -0.126033
     65 C22        -4.5230   -1.3460   -2.3860 c         1 MOL      0.522846
     66 N7         -4.3560   -2.4460   -3.0260 n         1 MOL     -0.689479
     67 O11        -3.7410   -0.9900   -1.5420 o         1 MOL     -0.368051
     68 H28        -4.9690    1.4920   -1.3880 hn        1 MOL      0.192454
     69 H29        -7.5290    0.0680   -1.6150 h1        1 MOL      0.097252
     70 H30        -5.7620    0.2590   -3.3400 hc        1 MOL      0.045566
     71 H31        -6.6170   -1.2140   -3.0040 hc        1 MOL      0.045566
     72 H32        -5.0570   -2.7010   -3.7020 hn        1 MOL      0.337984
     73 H33        -3.6410   -3.0860   -2.7360 hn        1 MOL      0.337984
     74 N8         -5.7030   -0.9630    0.8470 n         1 MOL      0.133208
     75 C23        -5.7860   -1.7910    2.1130 c3        1 MOL     -0.537795
     76 C24        -4.6570   -2.8540    2.1580 c         1 MOL      0.713996
     77 O12        -4.5230   -3.6940    3.0150 o         1 MOL     -0.608907
     78 H34        -5.1260   -0.1440    0.9160 hn        1 MOL      0.209405
     79 H35        -6.7270   -2.3320    2.0320 h1        1 MOL      0.191196
     80 H36        -5.7550   -1.2280    3.0480 h1        1 MOL      0.191196
     81 N9         -3.7000   -2.7940    1.2850 n         1 MOL     -0.339567
     82 C25        -2.4950   -3.6360    1.3250 c3        1 MOL      0.450942
     83 C26        -1.2200   -2.8100    1.0680 c         1 MOL      0.331201
     84 O13        -1.3100   -1.7820    0.3800 o         1 MOL     -0.673784
     85 C27        -2.6640   -4.7830    0.3630 c3        1 MOL     -0.199879
     86 C28        -3.8800   -5.6270    0.5600 ca        1 MOL     -0.036271
     87 C29        -5.1070   -5.1300    0.0610 ca        1 MOL     -0.019650
     88 C30        -3.7280   -6.9300    0.9720 ca        1 MOL     -0.019650
     89 C31        -6.2260   -6.0100    0.1240 ca        1 MOL     -0.396046
     90 C32        -4.8220   -7.8420    0.9100 ca        1 MOL     -0.396046
     91 C33        -6.1140   -7.3520    0.4960 ca        1 MOL      0.448880
     92 O14        -7.1880   -8.1620    0.5330 oh        1 MOL     -0.477867
     93 H37        -3.6620   -2.0410    0.6180 hn        1 MOL      0.111541
     94 H38        -2.4160   -4.0030    2.3450 h1        1 MOL     -0.053822
     95 H39        -1.7440   -5.3610    0.3940 hc        1 MOL      0.053486
     96 H40        -2.5720   -4.3620   -0.6420 hc        1 MOL      0.053486
     97 H41        -5.1910   -4.1530   -0.3930 ha        1 MOL      0.084069
     98 H42        -2.7560   -7.3310    1.2380 ha        1 MOL      0.084069
     99 H43        -7.2410   -5.6710   -0.0560 ha        1 MOL      0.165867
    100 H44        -4.7470   -8.8750    1.2390 ha        1 MOL      0.165867
    101 H45        -6.9280   -9.0730    0.6520 ho        1 MOL      0.342597
    102 N10        -0.0410   -3.3460    1.4440 n         1 MOL     -0.169645
    103 C34         1.2460   -2.6350    1.1850 c3        1 MOL     -0.052948
    104 C35         2.2800   -3.5480    0.5600 c         1 MOL      0.377792
    105 O15         2.2960   -4.7210    0.9240 o         1 MOL     -0.556865
    106 C36         1.6360   -1.9270    2.5240 c3        1 MOL     -0.121545
    107 C37         2.1170   -2.8690    3.6070 c3        1 MOL     -0.124799
    108 C38         0.4390   -1.0270    3.0680 c3        1 MOL      0.146634
    109 C39         2.6990   -2.1690    4.7580 c3        1 MOL     -0.073551
    110 H46        -0.1350   -4.2110    1.9680 hn        1 MOL      0.212673
    111 H47         1.0080   -1.7770    0.5570 h1        1 MOL      0.213210
    112 H48         2.4330   -1.2260    2.3140 hc        1 MOL      0.057174
    113 H49         3.0020   -3.4000    3.2580 hc        1 MOL      0.070779
    114 H50         1.3520   -3.5570    3.9520 hc        1 MOL      0.070779
    115 H51        -0.4620   -1.5510    3.3990 hc        1 MOL     -0.013656
    116 H52         0.7760   -0.3910    3.8900 hc        1 MOL     -0.013656
    117 H53         0.0990   -0.4580    2.2160 hc        1 MOL     -0.013656
    118 H54         1.9520   -1.7040    5.4010 hc        1 MOL      0.019593
    119 H55         3.1380   -3.0130    5.2990 hc        1 MOL      0.019593
    120 H56         3.5250   -1.5280    4.4390 hc        1 MOL      0.019593
    121 N11         3.1700   -3.0080   -0.2650 n         1 MOL     -0.019887
    122 C40         4.2520   -3.7600   -0.8480 c3        1 MOL      0.135538
    123 C41         5.6010   -3.3970   -0.3480 c         1 MOL      0.410934
    124 O16         5.7320   -2.3850    0.3350 o         1 MOL     -0.397038
    125 C42         4.0640   -3.7250   -2.3390 c3        1 MOL     -0.208030
    126 O17         4.4540   -2.4260   -2.8220 oh        1 MOL     -0.406463
    127 H57         3.1870   -2.0190   -0.5030 hn        1 MOL     -0.029707
    128 H58         4.1720   -4.7980   -0.5190 h1        1 MOL      0.053223
    129 H59         3.0070   -3.8600   -2.5920 h1        1 MOL      0.105023
    130 H60         4.7250   -4.5160   -2.6970 h1        1 MOL      0.105023
    131 H61         4.3010   -2.3940   -3.7670 ho        1 MOL      0.374666
    132 N12         6.6580   -4.1440   -0.7000 n         1 MOL     -0.423695
    133 C43         8.1030   -3.8270   -0.3330 c3        1 MOL      0.100492
    134 C44         8.4380   -2.3540   -0.7480 c         1 MOL      0.529286
    135 O18         8.8880   -1.6070    0.0510 o         1 MOL     -0.507257
    136 C45         8.8710   -4.8970   -1.1820 c3        1 MOL     -0.303102
    137 H62         6.5000   -5.0530   -1.1070 hn        1 MOL      0.294284
    138 H63         8.3530   -3.8990    0.7340 h1        1 MOL      0.093145
    139 H64         9.9190   -4.6780   -1.3740 hc        1 MOL      0.090953
    140 H65         8.7890   -5.8740   -0.7110 hc        1 MOL      0.090953
    141 H66         8.4560   -5.0820   -2.1690 hc        1 MOL      0.090953
    142 N13         8.0990   -1.8750   -1.9530 n         1 MOL     -0.450685
    143 C46         8.2520   -0.4620   -2.4440 c3        1 MOL      0.185500
    144 C47         7.4850    0.5450   -1.5330 c         1 MOL      0.255106
    145 O19         7.9180    1.6830   -1.3410 o         1 MOL     -0.495661
    146 C48         7.6200   -0.3810   -3.8700 c3        1 MOL     -0.319146
    147 H67         7.6440   -2.5340   -2.5720 hn        1 MOL      0.230966
    148 H68         9.3010   -0.1750   -2.5130 h1        1 MOL      0.084066
    149 H69         6.5510   -0.5900   -3.8560 hc        1 MOL      0.093633
    150 H70         7.8140    0.5850   -4.3450 hc        1 MOL      0.093633
    151 H71         8.1310   -1.1010   -4.5030 hc        1 MOL      0.093633
    152 N14         6.2880    0.1990   -1.0350 n         1 MOL      0.223911
    153 C49         5.4760    1.1140   -0.1870 c3        1 MOL     -0.350232
    154 C50         6.1240    1.2670    1.1730 c         1 MOL      0.499686
    155 O20         6.2460    2.3810    1.6850 o         1 MOL     -0.576540
    156 C51         4.0010    0.5960   -0.1790 c3        1 MOL      0.216485
    157 C52         3.3790    0.6860   -1.5320 c3        1 MOL     -0.139919
    158 C53         1.8940    0.3250   -1.3670 c         1 MOL      0.804671
    159 O21         1.4120   -0.6000   -2.0090 o         1 MOL     -0.770285
    160 O22         1.1090    0.9390   -0.6610 o         1 MOL     -0.770285
    161 H72         5.8200   -0.6460   -1.3000 hn        1 MOL     -0.069270
    162 H73         5.5000    2.0990   -0.6680 h1        1 MOL      0.139032
    163 H74         3.4830    1.2260    0.5400 hc        1 MOL      0.006109
    164 H75         3.9600   -0.4340    0.1750 hc        1 MOL      0.006109
    165 H76         3.8410    0.0500   -2.2880 hc        1 MOL      0.004852
    166 H77         3.4640    1.7170   -1.9000 hc        1 MOL      0.004852
    167 N15         6.6940    0.1660    1.7310 n         1 MOL     -0.146548
    168 C54         7.4550    0.1520    3.0610 c3        1 MOL     -0.214325
    169 H78         8.4310   -0.3110    2.9160 h1        1 MOL      0.098187
    170 H79         7.5860    1.1740    3.4160 h1        1 MOL      0.098187
    171 H80         6.8890   -0.4180    3.7980 h1        1 MOL      0.098187
    172 H81         6.6230   -0.7020    1.2070 hn        1 MOL      0.151009
    173 Ca1        -1.2430    0.0240   -1.4490 Ca        1 MOL      1.714719
    174 O23        -0.9280   -2.5680   -2.4120 oh        1 MOL     -0.942061
    175 H82        -0.9040   -2.0110   -3.1830 ho        1 MOL      0.451931
    176 H83        -0.2810   -3.2470   -2.5750 ho        1 MOL      0.451931
    177 O24        -1.1750   -0.2540   -4.1530 oh        1 MOL     -0.942061
    178 H84        -1.9070   -0.1050   -4.7550 ho        1 MOL      0.451931
    179 H85        -0.3980   -0.1700   -4.7070 ho        1 MOL      0.451931
@<TRIPOS>BOND
     1    1    2 1   
     2    1    4 1   
     3    1    5 1   
     4    1    6 1   
     5    2    3 2   
     6    2    7 1   
     7    7    8 1   
     8    7   15 1   
     9    8    9 1   
    10    8   11 1   
    11    8   16 1   
    12    9   10 2   
    13    9   19 1   
    14   11   12 1   
    15   11   17 1   
    16   11   18 1   
    17   12   13 1   
    18   12   14 1   
    19   19   20 1   
    20   19   28 1   
    21   20   21 1   
    22   20   23 1   
    23   20   29 1   
    24   21   22 2   
    25   21   41 1   
    26   23   24 1   
    27   23   30 1   
    28   23   31 1   
    29   24   25 1   
    30   24   32 1   
    31   24   33 1   
    32   25   26 1   
    33   25   34 1   
    34   25   35 1   
    35   26   27 1   
    36   26   36 1   
    37   26   37 1   
    38   27   38 1   
    39   27   39 1   
    40   27   40 1   
    41   41   42 1   
    42   41   49 1   
    43   42   43 1   
    44   42   45 1   
    45   42   50 1   
    46   43   44 2   
    47   43   53 1   
    48   45   46 1   
    49   45   51 1   
    50   45   52 1   
    51   46   47 1   
    52   46   48 1   
    53   53   54 1   
    54   53   57 1   
    55   54   55 1   
    56   54   58 1   
    57   54   59 1   
    58   55   56 2   
    59   55   60 1   
    60   60   61 1   
    61   60   68 1   
    62   61   62 1   
    63   61   64 1   
    64   61   69 1   
    65   62   63 2   
    66   62   74 1   
    67   64   65 1   
    68   64   70 1   
    69   64   71 1   
    70   65   66 1   
    71   65   67 2   
    72   66   72 1   
    73   66   73 1   
    74   74   75 1   
    75   74   78 1   
    76   75   76 1   
    77   75   79 1   
    78   75   80 1   
    79   76   77 2   
    80   76   81 1   
    81   81   82 1   
    82   81   93 1   
    83   82   83 1   
    84   82   85 1   
    85   82   94 1   
    86   83   84 2   
    87   83  102 1   
    88   85   86 1   
    89   85   95 1   
    90   85   96 1   
    91   86   87 ar  
    92   86   88 ar  
    93   87   89 ar  
    94   87   97 1   
    95   88   90 ar  
    96   88   98 1   
    97   89   91 ar  
    98   89   99 1   
    99   90   91 ar  
   100   90  100 1   
   101   91   92 1   
   102   92  101 1   
   103  102  103 1   
   104  102  110 1   
   105  103  104 1   
   106  103  106 1   
   107  103  111 1   
   108  104  105 2   
   109  104  121 1   
   110  106  107 1   
   111  106  108 1   
   112  106  112 1   
   113  107  109 1   
   114  107  113 1   
   115  107  114 1   
   116  108  115 1   
   117  108  116 1   
   118  108  117 1   
   119  109  118 1   
   120  109  119 1   
   121  109  120 1   
   122  121  122 1   
   123  121  127 1   
   124  122  123 1   
   125  122  125 1   
   126  122  128 1   
   127  123  124 2   
   128  123  132 1   
   129  125  126 1   
   130  125  129 1   
   131  125  130 1   
   132  126  131 1   
   133  132  133 1   
   134  132  137 1   
   135  133  134 1   
   136  133  136 1   
   137  133  138 1   
   138  134  135 2   
   139  134  142 1   
   140  136  139 1   
   141  136  140 1   
   142  136  141 1   
   143  142  143 1   
   144  142  147 1   
   145  143  144 1   
   146  143  146 1   
   147  143  148 1   
   148  144  145 2   
   149  144  152 1   
   150  146  149 1   
   151  146  150 1   
   152  146  151 1   
   153  152  153 1   
   154  152  161 1   
   155  153  154 1   
   156  153  156 1   
   157  153  162 1   
   158  154  155 2   
   159  154  167 1   
   160  156  157 1   
   161  156  163 1   
   162  156  164 1   
   163  157  158 1   
   164  157  165 1   
   165  157  166 1   
   166  158  159 1   
   167  158  160 1   
   168  167  168 1   
   169  167  172 1   
   170  168  169 1   
   171  168  170 1   
   172  168  171 1   
   173  174  175 1   
   174  174  176 1   
   175  177  178 1   
   176  177  179 1   
@<TRIPOS>SUBSTRUCTURE
     1 MOL         1 TEMP              0 ****  ****    0 ROOT
