@<TRIPOS>MOLECULE
MOL
  189   185     1     0     0
SMALL
resp


@<TRIPOS>ATOM
      1 C1          0.3800   -1.8400    6.4070 c3        1 MOL     -0.426993
      2 C2          0.5170   -1.9330    4.8690 c         1 MOL      0.728689
      3 O1          0.4320   -0.8640    4.2150 o         1 MOL     -0.557619
      4 H1         -0.0540   -2.7640    6.7900 hc        1 MOL      0.115519
      5 H2          1.3640   -1.6910    6.8520 hc        1 MOL      0.115519
      6 H3         -0.2660   -1.0010    6.6650 hc        1 MOL      0.115519
      7 N1          0.8950   -3.1420    4.3240 n         1 MOL     -0.665752
      8 C3          1.6230   -3.2790    3.0430 c3        1 MOL      0.343796
      9 C4          1.5170   -4.5710    2.2520 c         1 MOL      0.390954
     10 O2          1.2070   -5.5900    2.8480 o         1 MOL     -0.557438
     11 C5          3.1150   -3.0000    3.2840 c3        1 MOL     -0.328257
     12 C6          3.9900   -2.6040    2.1190 c         1 MOL      0.699958
     13 O3          5.2220   -2.4480    2.1660 o         1 MOL     -0.685224
     14 O4          3.5020   -2.2680    1.0510 o         1 MOL     -0.685224
     15 H4          0.9710   -3.9550    4.9140 hn        1 MOL      0.328551
     16 H5          1.2150   -2.5310    2.3700 h1        1 MOL      0.033133
     17 H6          3.5990   -3.7750    3.8850 hc        1 MOL      0.080465
     18 H7          3.1110   -2.1510    3.9670 hc        1 MOL      0.080465
     19 N2          1.7450   -4.4910    0.9520 n         1 MOL     -0.127158
     20 C7          1.7290   -5.5740   -0.0270 c3        1 MOL     -0.435596
     21 C8          2.8110   -5.3520   -1.1310 c         1 MOL      0.619931
     22 O5          2.7690   -6.1880   -2.0250 o         1 MOL     -0.556518
     23 C9          0.3600   -5.9520   -0.6370 c3        1 MOL      0.315323
     24 C10        -0.2530   -4.7650   -1.4290 c3        1 MOL     -0.047460
     25 C11        -0.6590   -6.3750    0.4820 c3        1 MOL     -0.354563
     26 C12        -1.5050   -5.0570   -2.2260 c3        1 MOL     -0.413230
     27 H8          2.0480   -3.6230    0.5250 hn        1 MOL      0.316212
     28 H9          2.1550   -6.4630    0.4240 h1        1 MOL      0.149773
     29 H10         0.4320   -6.8170   -1.3030 hc        1 MOL     -0.016229
     30 H11         0.4810   -4.3720   -2.1320 hc        1 MOL      0.114294
     31 H12        -0.5180   -4.0740   -0.6320 hc        1 MOL      0.114294
     32 H13        -0.2580   -7.1610    1.1290 hc        1 MOL      0.081193
     33 H14        -1.0000   -5.4830    1.0080 hc        1 MOL      0.081193
     34 H15        -1.5730   -6.7650    0.0310 hc        1 MOL      0.081193
     35 H16        -2.3640   -5.0990   -1.5590 hc        1 MOL      0.091050
     36 H17        -1.5670   -4.2720   -2.9820 hc        1 MOL      0.091050
     37 H18        -1.3880   -6.0750   -2.5930 hc        1 MOL      0.091050
     38 N3          3.6700   -4.2340   -1.0640 n         1 MOL     -0.535093
     39 C13         4.7140   -3.9990   -2.1320 c3        1 MOL      0.206247
     40 C14         6.0780   -3.4410   -1.6340 c         1 MOL      0.289628
     41 O6          7.0830   -3.7630   -2.3070 o         1 MOL     -0.574087
     42 C15         4.1100   -3.2120   -3.2380 c3        1 MOL     -0.412211
     43 C16         3.5260   -1.9150   -2.8230 c         1 MOL      0.869299
     44 O7          3.8740   -1.2980   -1.8410 o         1 MOL     -0.751919
     45 O8          2.4980   -1.5660   -3.4700 o         1 MOL     -0.751919
     46 H19         3.4770   -3.5230   -0.3760 hn        1 MOL      0.197706
     47 H20         4.9870   -4.9780   -2.5230 h1        1 MOL      0.072647
     48 H21         3.3550   -3.8110   -3.7570 hc        1 MOL      0.105921
     49 H22         4.9390   -2.9010   -3.8750 hc        1 MOL      0.105921
     50 N4          6.1920   -2.8050   -0.5340 n         1 MOL     -0.031456
     51 C17         7.4550   -2.2360    0.0150 c3        1 MOL     -0.258694
     52 C18         7.7040   -0.8220   -0.5820 c         1 MOL      0.544180
     53 O9          8.8060   -0.3450   -0.4030 o         1 MOL     -0.588931
     54 H23         5.3550   -2.7110    0.0240 hn        1 MOL      0.159712
     55 H24         8.2380   -2.9940   -0.0230 h1        1 MOL      0.128287
     56 H25         7.2010   -2.0110    1.0460 h1        1 MOL      0.128287
     57 N5          6.7580   -0.1250   -1.3190 n         1 MOL     -0.302863
     58 C19         7.0440    1.1790   -1.9320 c3        1 MOL     -0.096141
     59 C20         7.1640    2.4410   -1.0250 c         1 MOL      0.503744
     60 O10         7.7450    3.4940   -1.4550 o         1 MOL     -0.549184
     61 C21         6.0130    1.3840   -3.0770 c3        1 MOL     -0.163574
     62 C22         4.5960    1.7670   -2.5640 c         1 MOL      0.684190
     63 O11         4.2520    1.4660   -1.3800 o         1 MOL     -0.688654
     64 O12         3.7340    2.2690   -3.3500 o         1 MOL     -0.688654
     65 H26         5.8920   -0.6020   -1.5210 hn        1 MOL      0.293981
     66 H27         8.0010    1.0510   -2.4290 h1        1 MOL      0.105855
     67 H28         5.9610    0.4500   -3.6520 hc        1 MOL      0.049791
     68 H29         6.4690    2.1090   -3.7500 hc        1 MOL      0.049791
     69 N6          6.7150    2.2190    0.2390 n         1 MOL     -0.298636
     70 C23         6.7070    3.2760    1.2960 c3        1 MOL     -0.193059
     71 C24         5.5290    4.2590    1.1950 c         1 MOL      0.501956
     72 O13         5.5230    5.4290    1.6300 o         1 MOL     -0.577759
     73 H30         6.1480    1.4110    0.4550 hn        1 MOL      0.300972
     74 H31         7.6420    3.8200    1.1800 h1        1 MOL      0.095630
     75 H32         6.7610    2.7640    2.2460 h1        1 MOL      0.095630
     76 N7          4.4560    3.7320    0.7250 n         1 MOL     -0.251189
     77 C25         3.1630    4.3910    0.7250 c3        1 MOL     -0.160609
     78 C26         1.9760    3.4280    0.8120 c         1 MOL      0.512518
     79 O14         1.8530    2.3810    0.1470 o         1 MOL     -0.458008
     80 C27         3.1780    5.3330   -0.4810 c3        1 MOL     -0.002728
     81 C28         4.1590    6.5660   -0.5940 c3        1 MOL     -0.314595
     82 C29         3.7610    7.4560   -1.7640 c         1 MOL      0.661450
     83 N8          3.9940    7.0100   -2.9830 n         1 MOL     -0.799144
     84 O15         3.4100    8.6110   -1.5520 o         1 MOL     -0.595309
     85 H33         4.4730    2.8140    0.3150 hn        1 MOL      0.256081
     86 H34         3.1290    5.0230    1.6150 h1        1 MOL      0.097554
     87 H35         2.1770    5.7430   -0.6450 hc        1 MOL      0.063960
     88 H36         3.3160    4.7030   -1.3600 hc        1 MOL      0.063960
     89 H37         5.2000    6.2840   -0.7200 hc        1 MOL      0.129646
     90 H38         4.0570    7.1350    0.3300 hc        1 MOL      0.129646
     91 H39         4.2980    6.0540   -3.0960 hn        1 MOL      0.369631
     92 H40         3.8310    7.6270   -3.7570 hn        1 MOL      0.369631
     93 N9          0.9860    3.7760    1.7040 n         1 MOL     -0.579217
     94 C30        -0.2090    3.0490    2.0340 c3        1 MOL     -0.000638
     95 C31        -1.1830    3.2320    0.8460 c         1 MOL      0.668648
     96 O16        -1.6930    4.3150    0.5540 o         1 MOL     -0.634551
     97 C32        -0.8260    3.3430    3.3630 c3        1 MOL      0.165278
     98 C33        -2.0040    2.2840    3.6080 c3        1 MOL     -0.182153
     99 C34         0.1710    3.3680    4.5760 c3        1 MOL     -0.182153
    100 H41         1.0120    4.7280    2.0610 hn        1 MOL      0.335049
    101 H42         0.0120    1.9800    2.0100 h1        1 MOL      0.108885
    102 H43        -1.2180    4.3610    3.3000 hc        1 MOL     -0.023896
    103 H44        -2.6170    2.2830    2.7110 hc        1 MOL      0.036218
    104 H45        -1.5810    1.2790    3.6680 hc        1 MOL      0.036218
    105 H46        -2.5780    2.6210    4.4690 hc        1 MOL      0.036218
    106 H47         0.5510    2.3730    4.8270 hc        1 MOL      0.036218
    107 H48         0.9510    4.1140    4.4070 hc        1 MOL      0.036218
    108 H49        -0.3970    3.6640    5.4600 hc        1 MOL      0.036218
    109 N10        -1.5020    2.1440    0.1800 n         1 MOL     -0.165731
    110 C35        -2.5180    2.1360   -0.8960 c3        1 MOL     -0.066876
    111 C36        -3.9160    2.2310   -0.2110 c         1 MOL      0.344738
    112 O17        -4.1650    1.7110    0.8450 o         1 MOL     -0.258131
    113 C37        -2.2640    0.8650   -1.6550 c3        1 MOL     -0.035701
    114 C38        -2.8480    0.7140   -3.0280 c         1 MOL      0.626462
    115 N11        -2.2870   -0.1840   -3.8200 n         1 MOL     -0.823463
    116 O18        -3.8660    1.2420   -3.4140 o         1 MOL     -0.559154
    117 H50        -0.9810    1.3220    0.4530 hn        1 MOL     -0.018372
    118 H51        -2.4290    2.9540   -1.6090 h1        1 MOL      0.095809
    119 H52        -2.5310    0.0270   -1.0170 hc        1 MOL      0.084234
    120 H53        -1.1910    0.7070   -1.8050 hc        1 MOL      0.084234
    121 H54        -1.4140   -0.5630   -3.5070 hn        1 MOL      0.400744
    122 H55        -2.7980   -0.5620   -4.6030 hn        1 MOL      0.400744
    123 N12        -4.9150    2.6010   -0.9610 n         1 MOL     -0.347815
    124 C39        -6.3530    2.3440   -0.6830 c3        1 MOL      0.106861
    125 C40        -6.6560    0.8890   -0.5810 c         1 MOL      0.793712
    126 O19        -7.4930    0.5010    0.2410 o         1 MOL     -0.535173
    127 C41        -7.2320    2.9470   -1.7760 c3        1 MOL     -0.191716
    128 C42        -8.7130    2.7200   -1.3850 ca        1 MOL      0.188523
    129 C43        -9.2380    3.2450   -0.1710 ca        1 MOL     -0.341514
    130 C44        -9.5600    2.0600   -2.2850 ca        1 MOL     -0.341514
    131 C45       -10.4290    2.7700    0.3720 ca        1 MOL     -0.160720
    132 C46       -10.8440    1.7290   -1.8360 ca        1 MOL     -0.160720
    133 C47       -11.2750    2.0370   -0.4880 ca        1 MOL      0.275098
    134 O20       -12.5150    1.7820   -0.0430 oh        1 MOL     -0.479008
    135 H56        -4.7060    3.0680   -1.8210 hn        1 MOL      0.247338
    136 H57        -6.5570    2.7960    0.2850 h1        1 MOL      0.023380
    137 H58        -7.0500    2.4350   -2.7280 hc        1 MOL      0.070977
    138 H59        -7.1420    4.0260   -1.8940 hc        1 MOL      0.070977
    139 H60        -8.6320    3.9300    0.4140 ha        1 MOL      0.187179
    140 H61        -9.2160    1.7220   -3.2560 ha        1 MOL      0.187179
    141 H62       -10.7570    3.0940    1.3490 ha        1 MOL      0.129301
    142 H63       -11.5470    1.2140   -2.4730 ha        1 MOL      0.129301
    143 H64       -12.9500    1.3620   -0.7790 ho        1 MOL      0.346074
    144 N13        -5.9070   -0.0090   -1.2340 n         1 MOL     -0.478073
    145 C48        -5.8100   -1.4900   -0.9930 c3        1 MOL      0.081514
    146 C49        -5.1120   -1.9880    0.3080 c         1 MOL      0.508924
    147 O21        -5.2270   -3.1950    0.5460 o         1 MOL     -0.546188
    148 C50        -5.1780   -2.1740   -2.1710 c3        1 MOL      0.266300
    149 C51        -5.5930   -3.6390   -2.5120 c3        1 MOL     -0.340998
    150 C52        -7.0030   -3.6810   -3.1360 c         1 MOL      0.693714
    151 O22        -8.0080   -3.2940   -2.4590 o         1 MOL     -0.735810
    152 O23        -7.0780   -4.0110   -4.3470 o         1 MOL     -0.735810
    153 H65        -5.2330    0.3180   -1.9170 hn        1 MOL      0.197634
    154 H66        -6.8710   -1.6920   -0.9320 h1        1 MOL      0.072466
    155 H67        -4.0950   -2.2220   -1.9880 hc        1 MOL     -0.033862
    156 H68        -5.2320   -1.5790   -3.0860 hc        1 MOL     -0.033862
    157 H69        -5.6280   -4.1820   -1.5640 hc        1 MOL      0.057148
    158 H70        -4.8020   -4.1220   -3.0690 hc        1 MOL      0.057148
    159 N14        -4.5610   -1.0970    1.1030 n         1 MOL      0.008713
    160 C53        -3.6550   -1.4070    2.2110 c3        1 MOL     -0.073781
    161 C54        -4.0810   -0.7850    3.5710 c         1 MOL      0.486017
    162 O24        -3.6940   -1.3070    4.6440 o         1 MOL     -0.548526
    163 C55        -2.2090   -0.9850    1.7620 c3        1 MOL      0.022228
    164 C56        -1.5240   -1.8730    0.7440 c3        1 MOL     -0.254516
    165 C57        -0.1900   -1.2580    0.3120 c         1 MOL      0.615874
    166 O25         0.5910   -1.9460   -0.3510 o         1 MOL     -0.674022
    167 O26         0.1250   -0.0670    0.6990 o         1 MOL     -0.674022
    168 H71        -4.5400   -0.1480    0.7540 hn        1 MOL     -0.634687
    169 H72        -3.5630   -2.4650    2.4690 h1        1 MOL      0.089259
    170 H73        -1.5830   -0.9710    2.6520 hc        1 MOL      0.082093
    171 H74        -2.1880    0.0610    1.4470 hc        1 MOL      0.082093
    172 H75        -2.3130   -1.9200   -0.0100 hc        1 MOL      0.096012
    173 H76        -1.3950   -2.8550    1.1860 hc        1 MOL      0.096012
    174 N15        -4.9860    0.2110    3.5180 n         1 MOL     -0.226675
    175 C58        -5.4000    0.9620    4.7620 c3        1 MOL     -0.250808
    176 H77        -5.9310    0.2870    5.4330 h1        1 MOL      0.101209
    177 H78        -4.5140    1.3500    5.2640 h1        1 MOL      0.101209
    178 H79        -6.0540    1.7890    4.4870 h1        1 MOL      0.101209
    179 H80        -5.3970    0.5450    2.6570 hn        1 MOL      0.296264
    180 Ca1         2.5930   -0.0780   -0.0710 Ca        1 MOL      1.690406
    181 O27         2.3500    0.1420    2.7510 oh        1 MOL     -0.916777
    182 H81         1.5610   -0.1480    3.2180 ho        1 MOL      0.427968
    183 H82         2.5820    0.9750    3.1520 ho        1 MOL      0.427968
    184 O28         1.6410    0.8290   -2.6210 oh        1 MOL     -0.916777
    185 H83         1.8390    0.0170   -3.0840 ho        1 MOL      0.427968
    186 H84         2.3800    1.4030   -2.8100 ho        1 MOL      0.427968
    187 O29         4.8470    0.4630    1.3500 oh        1 MOL     -0.916777
    188 H85         4.8850    0.9480    2.1700 ho        1 MOL      0.427968
    189 H86         5.0240   -0.4450    1.5910 ho        1 MOL      0.427968
@<TRIPOS>BOND
     1    1    2 1   
     2    1    4 1   
     3    1    5 1   
     4    1    6 1   
     5    2    3 2   
     6    2    7 1   
     7    7    8 1   
     8    7   15 1   
     9    8    9 1   
    10    8   11 1   
    11    8   16 1   
    12    9   10 2   
    13    9   19 1   
    14   11   12 1   
    15   11   17 1   
    16   11   18 1   
    17   12   13 1   
    18   12   14 1   
    19   19   20 1   
    20   19   27 1   
    21   20   21 1   
    22   20   23 1   
    23   20   28 1   
    24   21   22 2   
    25   21   38 1   
    26   23   24 1   
    27   23   25 1   
    28   23   29 1   
    29   24   26 1   
    30   24   30 1   
    31   24   31 1   
    32   25   32 1   
    33   25   33 1   
    34   25   34 1   
    35   26   35 1   
    36   26   36 1   
    37   26   37 1   
    38   38   39 1   
    39   38   46 1   
    40   39   40 1   
    41   39   42 1   
    42   39   47 1   
    43   40   41 2   
    44   40   50 1   
    45   42   43 1   
    46   42   48 1   
    47   42   49 1   
    48   43   44 1   
    49   43   45 1   
    50   50   51 1   
    51   50   54 1   
    52   51   52 1   
    53   51   55 1   
    54   51   56 1   
    55   52   53 2   
    56   52   57 1   
    57   57   58 1   
    58   57   65 1   
    59   58   59 1   
    60   58   61 1   
    61   58   66 1   
    62   59   60 2   
    63   59   69 1   
    64   61   62 1   
    65   61   67 1   
    66   61   68 1   
    67   62   63 1   
    68   62   64 1   
    69   69   70 1   
    70   69   73 1   
    71   70   71 1   
    72   70   74 1   
    73   70   75 1   
    74   71   72 2   
    75   71   76 1   
    76   76   77 1   
    77   76   85 1   
    78   77   78 1   
    79   77   80 1   
    80   77   86 1   
    81   78   79 2   
    82   78   93 1   
    83   80   81 1   
    84   80   87 1   
    85   80   88 1   
    86   81   82 1   
    87   81   89 1   
    88   81   90 1   
    89   82   83 1   
    90   82   84 2   
    91   83   91 1   
    92   83   92 1   
    93   93   94 1   
    94   93  100 1   
    95   94   95 1   
    96   94   97 1   
    97   94  101 1   
    98   95   96 2   
    99   95  109 1   
   100   97   98 1   
   101   97   99 1   
   102   97  102 1   
   103   98  103 1   
   104   98  104 1   
   105   98  105 1   
   106   99  106 1   
   107   99  107 1   
   108   99  108 1   
   109  109  110 1   
   110  109  117 1   
   111  110  111 1   
   112  110  113 1   
   113  110  118 1   
   114  111  112 2   
   115  111  123 1   
   116  113  114 1   
   117  113  119 1   
   118  113  120 1   
   119  114  115 1   
   120  114  116 2   
   121  115  121 1   
   122  115  122 1   
   123  123  124 1   
   124  123  135 1   
   125  124  125 1   
   126  124  127 1   
   127  124  136 1   
   128  125  126 2   
   129  125  144 1   
   130  127  128 1   
   131  127  137 1   
   132  127  138 1   
   133  128  129 ar  
   134  128  130 ar  
   135  129  131 ar  
   136  129  139 1   
   137  130  132 ar  
   138  130  140 1   
   139  131  133 ar  
   140  131  141 1   
   141  132  133 ar  
   142  132  142 1   
   143  133  134 1   
   144  134  143 1   
   145  144  145 1   
   146  144  153 1   
   147  145  146 1   
   148  145  148 1   
   149  145  154 1   
   150  146  147 2   
   151  146  159 1   
   152  148  149 1   
   153  148  155 1   
   154  148  156 1   
   155  149  150 1   
   156  149  157 1   
   157  149  158 1   
   158  150  151 1   
   159  150  152 1   
   160  159  160 1   
   161  159  168 1   
   162  160  161 1   
   163  160  163 1   
   164  160  169 1   
   165  161  162 2   
   166  161  174 1   
   167  163  164 1   
   168  163  170 1   
   169  163  171 1   
   170  164  165 1   
   171  164  172 1   
   172  164  173 1   
   173  165  166 1   
   174  165  167 1   
   175  174  175 1   
   176  174  179 1   
   177  175  176 1   
   178  175  177 1   
   179  175  178 1   
   180  181  182 1   
   181  181  183 1   
   182  184  185 1   
   183  184  186 1   
   184  187  188 1   
   185  187  189 1   
@<TRIPOS>SUBSTRUCTURE
     1 MOL         1 TEMP              0 ****  ****    0 ROOT
