@<TRIPOS>MOLECULE
MOL
  189   185     1     0     0
SMALL
resp


@<TRIPOS>ATOM
      1 C1          0.4460    3.2670    5.6030 c3        1 MOL     -0.405024
      2 C2          0.0310    2.7980    4.1970 c         1 MOL      0.827798
      3 O1          0.7750    3.0290    3.2540 o         1 MOL     -0.690645
      4 H1          0.1650    2.5100    6.3360 hc        1 MOL      0.101887
      5 H2          1.5250    3.4180    5.6340 hc        1 MOL      0.101887
      6 H3         -0.0600    4.2030    5.8380 hc        1 MOL      0.101887
      7 N1         -1.0990    2.1030    3.9770 n         1 MOL     -0.764273
      8 C3         -1.6990    1.8550    2.6380 c3        1 MOL      0.216108
      9 C4         -2.2780    3.1900    2.0190 c         1 MOL      0.541893
     10 O2         -3.0860    3.8760    2.6260 o         1 MOL     -0.544441
     11 C5         -2.8010    0.7540    2.7710 c3        1 MOL     -0.290291
     12 C6         -3.6340    0.3450    1.4960 c         1 MOL      0.818404
     13 O3         -4.7250   -0.2600    1.6790 o         1 MOL     -0.737005
     14 O4         -3.3240    0.6100    0.3590 o         1 MOL     -0.737005
     15 H4         -1.6940    1.9500    4.7750 hn        1 MOL      0.361024
     16 H5         -0.8900    1.4250    2.0490 h1        1 MOL      0.034192
     17 H6         -3.4390    1.1760    3.5400 hc        1 MOL      0.070474
     18 H7         -2.3410   -0.1760    3.1130 hc        1 MOL      0.070474
     19 N2         -1.8230    3.5460    0.7410 n         1 MOL     -0.113488
     20 C7         -1.8870    4.8970    0.2420 c3        1 MOL     -0.196273
     21 C8         -2.7700    5.0230   -1.0300 c         1 MOL      0.526733
     22 O5         -3.1570    6.0810   -1.3790 o         1 MOL     -0.567555
     23 C9         -0.5110    5.4730   -0.1430 c3        1 MOL     -0.087860
     24 C10         0.5490    5.6980    0.9360 c3        1 MOL      0.063938
     25 C11         0.0550    6.8890    1.7820 c3        1 MOL     -0.233429
     26 C12         1.0730    7.6970    2.5090 c3        1 MOL      0.077369
     27 N3          1.5050    7.0490    3.7770 n4        1 MOL     -0.367775
     28 H8         -1.1140    2.9340    0.3580 hn        1 MOL      0.239300
     29 H9         -2.3920    5.4590    1.0330 h1        1 MOL      0.092607
     30 H10        -0.6200    6.4060   -0.7010 hc        1 MOL      0.051769
     31 H11        -0.0410    4.8020   -0.8620 hc        1 MOL      0.051769
     32 H12         1.5190    5.8930    0.4980 hc        1 MOL      0.006856
     33 H13         0.4740    4.7890    1.5430 hc        1 MOL      0.006856
     34 H14        -0.7690    6.6020    2.4400 hc        1 MOL      0.105189
     35 H15        -0.2650    7.5680    0.9910 hc        1 MOL      0.105189
     36 H16         0.7290    8.7180    2.6740 hx        1 MOL      0.079768
     37 H17         1.9960    7.7750    1.9230 hx        1 MOL      0.079768
     38 H18         1.9590    6.1760    3.5620 hn        1 MOL      0.325038
     39 H19         2.0920    7.6660    4.3210 hn        1 MOL      0.325038
     40 H20         0.7210    6.6420    4.2500 hn        1 MOL      0.325038
     41 N4         -3.2240    3.9260   -1.6070 n         1 MOL     -0.321320
     42 C13        -4.1410    3.8680   -2.7000 c3        1 MOL      0.176853
     43 C14        -5.4730    3.1610   -2.2390 c         1 MOL      0.526752
     44 O6         -6.3700    2.9840   -3.0800 o         1 MOL     -0.553046
     45 C15        -3.5400    3.2240   -3.9570 c3        1 MOL     -0.012371
     46 C16        -2.9450    1.8280   -3.8050 c         1 MOL      0.516571
     47 O7         -2.8680    1.3960   -2.6540 o         1 MOL     -0.623185
     48 O8         -2.8490    1.0910   -4.7950 o         1 MOL     -0.623185
     49 H21        -2.8000    3.0610   -1.3070 hn        1 MOL      0.144793
     50 H22        -4.6380    4.8150   -2.9420 h1        1 MOL      0.016025
     51 H23        -2.7490    3.9330   -4.1930 hc        1 MOL     -0.004597
     52 H24        -4.2970    3.3260   -4.7350 hc        1 MOL     -0.004597
     53 N5         -5.5670    2.6800   -1.0050 n         1 MOL     -0.292180
     54 C17        -6.6840    2.2860   -0.2820 c3        1 MOL     -0.288959
     55 C18        -7.2730    0.9050   -0.6840 c         1 MOL      0.568141
     56 O9         -8.4000    0.5070   -0.3280 o         1 MOL     -0.593116
     57 H25        -4.6840    2.5190   -0.5470 hn        1 MOL      0.182973
     58 H26        -7.4520    3.0560   -0.4010 h1        1 MOL      0.138835
     59 H27        -6.4280    2.2010    0.7740 h1        1 MOL      0.138835
     60 N6         -6.4580    0.0690   -1.3930 n         1 MOL     -0.303917
     61 C19        -7.0070   -1.2250   -1.8620 c3        1 MOL     -0.003149
     62 C20        -7.0980   -2.3060   -0.7530 c         1 MOL      0.486714
     63 O10        -7.5970   -3.3930   -1.0740 o         1 MOL     -0.553542
     64 C21        -6.3320   -1.8550   -3.1190 c3        1 MOL     -0.396814
     65 C22        -4.8330   -2.1030   -2.8470 c         1 MOL      0.781027
     66 O11        -4.2000   -2.8340   -3.6880 o         1 MOL     -0.661060
     67 O12        -4.2320   -1.7430   -1.8280 o         1 MOL     -0.661060
     68 H28        -5.4910    0.3170   -1.5370 hn        1 MOL      0.279691
     69 H29        -8.0500   -1.0550   -2.1470 h1        1 MOL      0.113990
     70 H30        -6.4250   -1.0950   -3.9050 hc        1 MOL      0.134970
     71 H31        -6.6920   -2.8210   -3.4500 hc        1 MOL      0.134970
     72 N7         -6.6350   -2.0340    0.5100 n         1 MOL     -0.255246
     73 C23        -6.7100   -2.8820    1.6530 c3        1 MOL     -0.096029
     74 C24        -5.3970   -3.5700    2.0570 c         1 MOL      0.428508
     75 O13        -5.3700   -4.4460    2.9420 o         1 MOL     -0.567598
     76 H32        -6.1790   -1.1530    0.6760 hn        1 MOL      0.281381
     77 H33        -7.4780   -3.5920    1.3710 h1        1 MOL      0.087259
     78 H34        -7.1780   -2.3660    2.4970 h1        1 MOL      0.087259
     79 N8         -4.3130   -3.3020    1.3600 n         1 MOL     -0.069132
     80 C25        -3.0280   -3.9390    1.6670 c3        1 MOL     -0.027650
     81 C26        -1.7810   -3.0610    1.5280 c         1 MOL      0.513557
     82 O14        -1.7750   -2.0240    0.8660 o         1 MOL     -0.561301
     83 C27        -2.8820   -5.2220    0.8760 c3        1 MOL      0.333300
     84 C28        -3.9740   -6.3090    0.9410 c3        1 MOL     -0.536334
     85 O15        -2.8670   -4.9310   -0.5370 oh        1 MOL     -0.634838
     86 H35        -4.3180   -2.6310    0.6090 hn        1 MOL      0.055177
     87 H36        -3.1770   -4.2910    2.6940 h1        1 MOL      0.048990
     88 H37        -1.9370   -5.6800    1.1580 h1        1 MOL      0.019189
     89 H38        -3.6760   -5.3630   -0.8260 ho        1 MOL      0.419150
     90 H39        -3.7670   -7.1040    0.2380 hc        1 MOL      0.151141
     91 H40        -4.1300   -6.6210    1.9790 hc        1 MOL      0.151141
     92 H41        -4.8880   -5.9080    0.5080 hc        1 MOL      0.151141
     93 N9         -0.6800   -3.5550    2.0760 n         1 MOL     -0.447628
     94 C29         0.6480   -2.9030    1.9740 c3        1 MOL      0.127757
     95 C30         1.4890   -3.6810    0.9670 c         1 MOL      0.534947
     96 O16         1.6250   -4.9060    1.1150 o         1 MOL     -0.592831
     97 C31         1.2540   -2.8590    3.3780 c3        1 MOL     -0.126093
     98 C32         0.5900   -1.7170    4.2260 c3        1 MOL      0.076848
     99 C33         2.8020   -2.5530    3.4430 c3        1 MOL     -0.088075
    100 C34         0.7320   -1.7950    5.7130 c3        1 MOL     -0.188540
    101 H42        -0.8020   -4.3790    2.6410 hn        1 MOL      0.274195
    102 H43         0.4930   -1.8830    1.6090 h1        1 MOL      0.033521
    103 H44         1.0870   -3.8670    3.7690 hc        1 MOL      0.069809
    104 H45        -0.4860   -1.7160    4.0440 hc        1 MOL      0.028339
    105 H46         0.9350   -0.7460    3.8850 hc        1 MOL      0.028339
    106 H47         3.4280   -3.1280    2.7600 hc        1 MOL      0.003943
    107 H48         2.9760   -1.5120    3.1560 hc        1 MOL      0.003943
    108 H49         3.1730   -2.7010    4.4570 hc        1 MOL      0.003943
    109 H50         0.6480   -2.8220    6.0680 hc        1 MOL      0.048012
    110 H51         1.7080   -1.3970    5.9750 hc        1 MOL      0.048012
    111 H52        -0.0860   -1.3490    6.2890 hc        1 MOL      0.048012
    112 N10         2.0050   -2.9780    0.0180 n         1 MOL     -0.070766
    113 C35         3.1190   -3.3470   -0.8950 c3        1 MOL     -0.174315
    114 C36         4.5350   -3.0180   -0.3120 c         1 MOL      0.334099
    115 O17         4.6570   -2.2660    0.6470 o         1 MOL     -0.253760
    116 C37         2.9910   -2.5990   -2.3070 c3        1 MOL      0.171218
    117 C38         1.7690   -2.9850   -3.1950 c3        1 MOL     -0.212752
    118 O18         3.0610   -1.1820   -2.1420 oh        1 MOL     -0.589539
    119 H53         1.5530   -2.0930   -0.1590 hn        1 MOL      0.175910
    120 H54         2.9420   -4.3640   -1.2610 h1        1 MOL      0.095455
    121 H55         3.8990   -2.8320   -2.8640 h1        1 MOL      0.040494
    122 H56         2.1660   -0.9410   -1.9010 ho        1 MOL      0.366899
    123 H57         1.9480   -3.9640   -3.6590 hc        1 MOL      0.080482
    124 H58         0.9230   -3.0510   -2.5130 hc        1 MOL      0.080482
    125 H59         1.6350   -2.3000   -4.0340 hc        1 MOL      0.080482
    126 N11         5.6150   -3.4410   -0.9740 n         1 MOL     -0.288853
    127 C39         7.0100   -3.0470   -0.5860 c3        1 MOL     -0.192122
    128 C40         7.2300   -1.5490   -0.4110 c         1 MOL      0.510596
    129 O19         7.9010   -1.2510    0.6100 o         1 MOL     -0.501764
    130 C41         8.0860   -3.5880   -1.4700 c3        1 MOL      0.338215
    131 C42         8.3780   -5.1070   -1.1990 c3        1 MOL     -0.326845
    132 O20         7.7250   -3.3780   -2.8060 oh        1 MOL     -0.645668
    133 H60         5.5450   -4.1050   -1.7260 hn        1 MOL      0.300355
    134 H61         7.3200   -3.4330    0.3820 h1        1 MOL      0.127108
    135 H62         9.0530   -3.0990   -1.3260 h1        1 MOL      0.029271
    136 H63         8.5260   -3.5350   -3.3080 ho        1 MOL      0.407873
    137 H64         8.6670   -5.2700   -0.1630 hc        1 MOL      0.093152
    138 H65         7.5410   -5.7390   -1.5170 hc        1 MOL      0.093152
    139 H66         9.2520   -5.3990   -1.7830 hc        1 MOL      0.093152
    140 N12         6.7420   -0.6920   -1.2910 n         1 MOL     -0.431996
    141 C43         6.8780    0.7410   -1.1050 c3        1 MOL     -0.120842
    142 C44         6.1610    1.3280    0.1120 c         1 MOL      0.349696
    143 O21         6.6310    2.2330    0.7960 o         1 MOL     -0.482424
    144 C45         6.5070    1.4440   -2.4230 c3        1 MOL     -0.070662
    145 C46         6.7340    2.9590   -2.4130 c3        1 MOL      0.024644
    146 C47         6.4830    3.6990   -3.7530 c3        1 MOL     -0.069118
    147 C48         7.2220    3.1910   -4.9720 c3        1 MOL     -0.023947
    148 N13         8.6710    3.5550   -4.8400 n4        1 MOL     -0.330465
    149 H67         6.1670   -1.0140   -2.0510 hn        1 MOL      0.328965
    150 H68         7.9200    1.0380   -0.9710 h1        1 MOL      0.137575
    151 H69         5.4480    1.2670   -2.6550 hc        1 MOL      0.050388
    152 H70         6.9630    0.9670   -3.2860 hc        1 MOL      0.050388
    153 H71         7.7750    3.1090   -2.1260 hc        1 MOL      0.019688
    154 H72         6.1580    3.3150   -1.5530 hc        1 MOL      0.019688
    155 H73         6.7320    4.7390   -3.5510 hc        1 MOL      0.065482
    156 H74         5.4220    3.6460   -4.0010 hc        1 MOL      0.065482
    157 H75         6.8220    3.6460   -5.8730 hx        1 MOL      0.105507
    158 H76         7.1230    2.1030   -5.0010 hx        1 MOL      0.105507
    159 H77         9.0830    3.2770   -5.7200 hn        1 MOL      0.288232
    160 H78         8.8110    4.5480   -4.7090 hn        1 MOL      0.288232
    161 H79         9.1070    2.9940   -4.1200 hn        1 MOL      0.288232
    162 N14         4.9130    0.8530    0.3880 n         1 MOL     -0.143163
    163 C49         4.0820    1.2510    1.4810 c3        1 MOL     -0.071993
    164 C50         4.6530    0.7330    2.8410 c         1 MOL      0.364028
    165 O22         4.5270    1.4300    3.8440 o         1 MOL     -0.532228
    166 C51         2.6570    0.7230    1.2830 c3        1 MOL      0.099371
    167 C52         1.9730    1.2740   -0.0060 c3        1 MOL     -0.190489
    168 C53         0.7050    0.5300   -0.4160 c         1 MOL      0.727076
    169 O23        -0.3820    1.1730   -0.4180 o         1 MOL     -0.767409
    170 O24         0.6970   -0.7290   -0.7070 o         1 MOL     -0.767409
    171 H80         4.6040    0.0230   -0.1000 hn        1 MOL      0.187152
    172 H81         3.9250    2.3250    1.5660 h1        1 MOL      0.082624
    173 H82         2.0440    0.8230    2.1780 hc        1 MOL      0.062712
    174 H83         2.7020   -0.3680    1.2900 hc        1 MOL      0.062712
    175 H84         2.6690    1.1650   -0.8350 hc        1 MOL      0.039701
    176 H85         1.8350    2.3430    0.1340 hc        1 MOL      0.039701
    177 N15         5.3390   -0.4510    2.7780 n         1 MOL      0.085382
    178 C54         6.0810   -1.0010    3.8390 c3        1 MOL     -0.277729
    179 H86         5.5510   -1.8650    4.2430 h1        1 MOL      0.095272
    180 H87         7.0600   -1.3140    3.4750 h1        1 MOL      0.095272
    181 H88         6.2050   -0.2530    4.6230 h1        1 MOL      0.095272
    182 H89         5.3260   -0.9120    1.8750 hn        1 MOL      0.031462
    183 Ca1        -1.8920   -0.6440   -1.2870 Ca        1 MOL      1.725848
    184 O25        -1.8310   -3.1400   -2.3170 oh        1 MOL     -0.862634
    185 H90        -2.6360   -3.1180   -2.8410 ho        1 MOL      0.394524
    186 H91        -1.9910   -3.8240   -1.6670 ho        1 MOL      0.394524
    187 O26        -0.9060   -0.5830   -3.9460 oh        1 MOL     -0.862634
    188 H92        -1.4590    0.1690   -4.1700 ho        1 MOL      0.394524
    189 H93        -0.3670   -0.7280   -4.7300 ho        1 MOL      0.394524
@<TRIPOS>BOND
     1    1    2 1   
     2    1    4 1   
     3    1    5 1   
     4    1    6 1   
     5    2    3 2   
     6    2    7 1   
     7    7    8 1   
     8    7   15 1   
     9    8    9 1   
    10    8   11 1   
    11    8   16 1   
    12    9   10 2   
    13    9   19 1   
    14   11   12 1   
    15   11   17 1   
    16   11   18 1   
    17   12   13 1   
    18   12   14 1   
    19   19   20 1   
    20   19   28 1   
    21   20   21 1   
    22   20   23 1   
    23   20   29 1   
    24   21   22 2   
    25   21   41 1   
    26   23   24 1   
    27   23   30 1   
    28   23   31 1   
    29   24   25 1   
    30   24   32 1   
    31   24   33 1   
    32   25   26 1   
    33   25   34 1   
    34   25   35 1   
    35   26   27 1   
    36   26   36 1   
    37   26   37 1   
    38   27   38 1   
    39   27   39 1   
    40   27   40 1   
    41   41   42 1   
    42   41   49 1   
    43   42   43 1   
    44   42   45 1   
    45   42   50 1   
    46   43   44 2   
    47   43   53 1   
    48   45   46 1   
    49   45   51 1   
    50   45   52 1   
    51   46   47 1   
    52   46   48 1   
    53   53   54 1   
    54   53   57 1   
    55   54   55 1   
    56   54   58 1   
    57   54   59 1   
    58   55   56 2   
    59   55   60 1   
    60   60   61 1   
    61   60   68 1   
    62   61   62 1   
    63   61   64 1   
    64   61   69 1   
    65   62   63 2   
    66   62   72 1   
    67   64   65 1   
    68   64   70 1   
    69   64   71 1   
    70   65   66 1   
    71   65   67 1   
    72   72   73 1   
    73   72   76 1   
    74   73   74 1   
    75   73   77 1   
    76   73   78 1   
    77   74   75 2   
    78   74   79 1   
    79   79   80 1   
    80   79   86 1   
    81   80   81 1   
    82   80   83 1   
    83   80   87 1   
    84   81   82 2   
    85   81   93 1   
    86   83   84 1   
    87   83   85 1   
    88   83   88 1   
    89   84   90 1   
    90   84   91 1   
    91   84   92 1   
    92   85   89 1   
    93   93   94 1   
    94   93  101 1   
    95   94   95 1   
    96   94   97 1   
    97   94  102 1   
    98   95   96 2   
    99   95  112 1   
   100   97   98 1   
   101   97   99 1   
   102   97  103 1   
   103   98  100 1   
   104   98  104 1   
   105   98  105 1   
   106   99  106 1   
   107   99  107 1   
   108   99  108 1   
   109  100  109 1   
   110  100  110 1   
   111  100  111 1   
   112  112  113 1   
   113  112  119 1   
   114  113  114 1   
   115  113  116 1   
   116  113  120 1   
   117  114  115 2   
   118  114  126 1   
   119  116  117 1   
   120  116  118 1   
   121  116  121 1   
   122  117  123 1   
   123  117  124 1   
   124  117  125 1   
   125  118  122 1   
   126  126  127 1   
   127  126  133 1   
   128  127  128 1   
   129  127  130 1   
   130  127  134 1   
   131  128  129 2   
   132  128  140 1   
   133  130  131 1   
   134  130  132 1   
   135  130  135 1   
   136  131  137 1   
   137  131  138 1   
   138  131  139 1   
   139  132  136 1   
   140  140  141 1   
   141  140  149 1   
   142  141  142 1   
   143  141  144 1   
   144  141  150 1   
   145  142  143 2   
   146  142  162 1   
   147  144  145 1   
   148  144  151 1   
   149  144  152 1   
   150  145  146 1   
   151  145  153 1   
   152  145  154 1   
   153  146  147 1   
   154  146  155 1   
   155  146  156 1   
   156  147  148 1   
   157  147  157 1   
   158  147  158 1   
   159  148  159 1   
   160  148  160 1   
   161  148  161 1   
   162  162  163 1   
   163  162  171 1   
   164  163  164 1   
   165  163  166 1   
   166  163  172 1   
   167  164  165 2   
   168  164  177 1   
   169  166  167 1   
   170  166  173 1   
   171  166  174 1   
   172  167  168 1   
   173  167  175 1   
   174  167  176 1   
   175  168  169 1   
   176  168  170 1   
   177  177  178 1   
   178  177  182 1   
   179  178  179 1   
   180  178  180 1   
   181  178  181 1   
   182  184  185 1   
   183  184  186 1   
   184  187  188 1   
   185  187  189 1   
@<TRIPOS>SUBSTRUCTURE
     1 MOL         1 TEMP              0 ****  ****    0 ROOT
