@<TRIPOS>MOLECULE
MOL
  176   174     1     0     0
SMALL
resp


@<TRIPOS>ATOM
      1 C1          1.7830    3.3730    5.2920 c3        1 MOL     -0.382629
      2 C2          1.3110    2.7760    3.9770 c         1 MOL      0.835323
      3 O1          2.1060    2.5400    3.1080 o         1 MOL     -0.566871
      4 H1          2.7510    3.8520    5.1460 hc        1 MOL      0.092193
      5 H2          1.0600    4.1130    5.6350 hc        1 MOL      0.092193
      6 H3          1.8770    2.5820    6.0370 hc        1 MOL      0.092193
      7 N1         -0.0610    2.6310    3.7660 n         1 MOL     -0.773779
      8 C3         -0.7570    2.4230    2.4230 c3        1 MOL      0.321931
      9 C4         -0.7950    3.7710    1.5570 c         1 MOL      0.361883
     10 O2         -1.3110    4.7990    2.0400 o         1 MOL     -0.552975
     11 C5         -2.1090    1.7930    2.6820 c3        1 MOL     -0.284407
     12 C6         -3.0590    1.7220    1.4970 c         1 MOL      0.803536
     13 O3         -4.2400    1.4870    1.6650 o         1 MOL     -0.656056
     14 O4         -2.6870    1.9420    0.3260 o         1 MOL     -0.656056
     15 H4         -0.6600    2.7820    4.5630 hn        1 MOL      0.355955
     16 H5         -0.2320    1.6730    1.8390 h1        1 MOL     -0.053629
     17 H6         -2.6920    2.4480    3.3280 hc        1 MOL      0.066839
     18 H7         -2.0260    0.7950    3.1110 hc        1 MOL      0.066839
     19 N2         -0.2270    3.8140    0.3210 n         1 MOL     -0.041377
     20 C7          0.1440    5.0090   -0.4550 c3        1 MOL     -0.014982
     21 C8         -0.8210    5.3600   -1.6270 c         1 MOL      0.596164
     22 O5         -0.4770    6.1470   -2.5370 o         1 MOL     -0.556629
     23 C9          1.5910    4.8880   -0.9230 c3        1 MOL     -0.044468
     24 C10         2.5640    4.8210    0.3010 c3        1 MOL     -0.071859
     25 C11         2.3930    5.8770    1.4280 c3        1 MOL     -0.093426
     26 C12         3.6530    6.1770    2.3030 c3        1 MOL      0.025419
     27 N3          3.4280    7.2090    3.3660 n4        1 MOL     -0.319417
     28 H8          0.0980    2.9460   -0.0730 hn        1 MOL      0.194850
     29 H9          0.0840    5.9380    0.1150 h1        1 MOL      0.011739
     30 H10         1.9020    5.6890   -1.5930 hc        1 MOL      0.049091
     31 H11         1.5600    3.9060   -1.3830 hc        1 MOL      0.049091
     32 H12         3.5140    4.8380   -0.2260 hc        1 MOL      0.057065
     33 H13         2.4840    3.8670    0.8240 hc        1 MOL      0.057065
     34 H14         1.6420    5.5630    2.1470 hc        1 MOL      0.057780
     35 H15         1.9390    6.7960    1.0680 hc        1 MOL      0.057780
     36 H16         4.3790    6.6240    1.6280 hx        1 MOL      0.083116
     37 H17         4.0960    5.2490    2.6630 hx        1 MOL      0.083116
     38 H18         2.9630    6.8710    4.1980 hn        1 MOL      0.315609
     39 H19         4.3520    7.3710    3.7420 hn        1 MOL      0.315609
     40 H20         2.9760    8.0350    3.0030 hn        1 MOL      0.315609
     41 N4         -1.9740    4.7140   -1.6980 n         1 MOL     -0.398222
     42 C13        -2.8970    4.7340   -2.8040 c3        1 MOL     -0.099453
     43 C14        -4.3520    4.4170   -2.3390 c         1 MOL      0.608047
     44 O6         -5.2420    4.7070   -3.0910 o         1 MOL     -0.520365
     45 C15        -2.4270    3.8690   -3.9890 c3        1 MOL     -0.063849
     46 C16        -2.1930    2.4050   -3.4970 c         1 MOL      0.721040
     47 O7         -3.0970    1.6180   -3.2020 o         1 MOL     -0.779079
     48 O8         -1.0460    1.9970   -3.2640 o         1 MOL     -0.779079
     49 H21        -2.0590    3.9720   -1.0100 hn        1 MOL      0.035236
     50 H22        -2.9030    5.7640   -3.1780 h1        1 MOL      0.109586
     51 H23        -1.5600    4.3030   -4.4590 hc        1 MOL      0.046690
     52 H24        -3.2130    3.8420   -4.7410 hc        1 MOL      0.046690
     53 N5         -4.4620    3.9660   -1.0920 n         1 MOL     -0.385302
     54 C17        -5.7410    3.7750   -0.3610 c3        1 MOL     -0.127041
     55 C18        -6.4900    2.5200   -0.8630 c         1 MOL      0.490402
     56 O9         -7.5180    2.7380   -1.4760 o         1 MOL     -0.526103
     57 H25        -3.6240    3.6430   -0.6280 hn        1 MOL      0.356096
     58 H26        -6.4130    4.6200   -0.5200 h1        1 MOL      0.092292
     59 H27        -5.6020    3.6640    0.7120 h1        1 MOL      0.092292
     60 N6         -5.9590    1.2780   -0.6700 n         1 MOL     -0.115477
     61 C19        -6.6990    0.0630   -0.9320 c3        1 MOL      0.158038
     62 C20        -6.8240   -0.8740    0.3300 c         1 MOL      0.213559
     63 O10        -7.5900   -1.8380    0.2650 o         1 MOL     -0.463034
     64 C21        -6.1830   -0.6810   -2.1540 c3        1 MOL     -0.383211
     65 C22        -4.7680   -1.2840   -1.9940 c         1 MOL      0.824085
     66 N7         -4.4760   -2.2120   -2.7600 n         1 MOL     -0.746310
     67 O11        -3.9100   -0.8430   -1.2780 o         1 MOL     -0.677052
     68 H28        -5.0510    1.2470   -0.2400 hn        1 MOL      0.030014
     69 H29        -7.7220    0.2940   -1.2190 h1        1 MOL      0.068900
     70 H30        -6.2610   -0.0570   -3.0460 hc        1 MOL      0.124574
     71 H31        -6.7430   -1.6200   -2.2280 hc        1 MOL      0.124574
     72 H32        -5.1600   -2.5420   -3.4230 hn        1 MOL      0.344714
     73 H33        -3.6530   -2.7720   -2.6240 hn        1 MOL      0.344714
     74 N8         -6.0360   -0.7190    1.3560 n         1 MOL     -0.095824
     75 C23        -5.9660   -1.7170    2.5010 c3        1 MOL     -0.119406
     76 C24        -4.7320   -2.5040    2.5990 c         1 MOL      0.624807
     77 O12        -4.6530   -3.4090    3.4610 o         1 MOL     -0.579567
     78 H34        -5.4650    0.1170    1.4310 hn        1 MOL      0.117340
     79 H35        -6.8070   -2.4100    2.4890 h1        1 MOL      0.109224
     80 H36        -6.1240   -1.2960    3.5000 h1        1 MOL      0.109224
     81 N9         -3.6940   -2.2310    1.7700 n         1 MOL     -0.549533
     82 C25        -2.5210   -3.1090    1.5290 c3        1 MOL      0.128935
     83 C26        -1.2950   -2.2340    1.3110 c         1 MOL      0.600159
     84 O13        -1.2740   -1.2240    0.5960 o         1 MOL     -0.654282
     85 C27        -2.8350   -4.0200    0.2720 c3        1 MOL      0.013490
     86 C28        -4.1530   -4.8760    0.3000 ca        1 MOL      0.211004
     87 C29        -5.3920   -4.2920   -0.1000 ca        1 MOL     -0.319697
     88 C30        -4.0800   -6.2250    0.5770 ca        1 MOL     -0.319697
     89 C31        -6.4970   -5.0900   -0.2490 ca        1 MOL     -0.115280
     90 C32        -5.2070   -7.0260    0.5790 ca        1 MOL     -0.115280
     91 C33        -6.4190   -6.5110    0.0930 ca        1 MOL      0.235318
     92 O14        -7.4730   -7.3610   -0.0920 oh        1 MOL     -0.449533
     93 H37        -3.8150   -1.4830    1.1060 hn        1 MOL      0.294528
     94 H38        -2.5010   -3.8420    2.3420 h1        1 MOL      0.066534
     95 H39        -2.0010   -4.7030    0.1150 hc        1 MOL     -0.027156
     96 H40        -2.9130   -3.3630   -0.6070 hc        1 MOL     -0.027156
     97 H41        -5.3960   -3.2530   -0.4130 ha        1 MOL      0.144344
     98 H42        -3.1630   -6.6040    1.0100 ha        1 MOL      0.144344
     99 H43        -7.4410   -4.6760   -0.5490 ha        1 MOL      0.123611
    100 H44        -5.0800   -8.0480    0.8950 ha        1 MOL      0.123611
    101 H45        -7.2540   -8.1800    0.3420 ho        1 MOL      0.343407
    102 N10        -0.1600   -2.7540    1.8390 n         1 MOL     -0.531200
    103 C34         1.2060   -2.1850    1.6550 c3        1 MOL      0.021630
    104 C35         2.0140   -3.2450    0.8150 c         1 MOL      0.458380
    105 O15         2.0710   -4.4820    1.2030 o         1 MOL     -0.522974
    106 C36         1.8880   -2.1600    3.0490 c3        1 MOL      0.126435
    107 C37         1.0660   -1.3030    4.0680 c3        1 MOL      0.265986
    108 C38         3.2240   -1.3490    3.0110 c3        1 MOL     -0.298437
    109 C39         1.3720   -1.5530    5.5160 c3        1 MOL     -0.233437
    110 H46        -0.1920   -3.6790    2.2610 hn        1 MOL      0.296079
    111 H47         1.1330   -1.1870    1.2270 h1        1 MOL      0.201477
    112 H48         1.9630   -3.1610    3.4580 hc        1 MOL      0.019785
    113 H49         0.0590   -1.7110    4.1150 hc        1 MOL     -0.057957
    114 H50         1.1160   -0.2370    3.8890 hc        1 MOL     -0.057957
    115 H51         3.1300   -0.2980    2.7660 hc        1 MOL      0.049848
    116 H52         3.7860   -1.5240    3.9250 hc        1 MOL      0.049848
    117 H53         3.8580   -1.9320    2.3390 hc        1 MOL      0.049848
    118 H54         0.7870   -0.9510    6.2120 hc        1 MOL      0.045217
    119 H55         1.3430   -2.6100    5.7670 hc        1 MOL      0.045217
    120 H56         2.4110   -1.2150    5.6180 hc        1 MOL      0.045217
    121 N11         2.5490   -2.8120   -0.3740 n         1 MOL     -0.254087
    122 C40         3.4850   -3.5460   -1.1950 c3        1 MOL      0.011618
    123 C41         4.9320   -3.5290   -0.6630 c         1 MOL      0.429684
    124 O16         5.2200   -2.7620    0.2680 o         1 MOL     -0.385348
    125 C42         3.5000   -3.1090   -2.7080 c3        1 MOL     -0.209091
    126 O17         3.9560   -1.8130   -2.8860 oh        1 MOL     -0.421068
    127 H57         2.4740   -1.8270   -0.5740 hn        1 MOL      0.183539
    128 H58         3.2790   -4.6060   -1.2630 h1        1 MOL      0.072402
    129 H59         2.4780   -3.1160   -3.0740 h1        1 MOL      0.125794
    130 H60         4.1550   -3.7720   -3.2910 h1        1 MOL      0.125794
    131 H61         3.1610   -1.2830   -2.8810 ho        1 MOL      0.379614
    132 N12         5.9240   -4.2480   -1.2340 n         1 MOL     -0.427052
    133 C43         7.2830   -4.1940   -0.7820 c3        1 MOL      0.131152
    134 C44         7.9190   -2.8230   -1.1770 c         1 MOL      0.383124
    135 O18         8.7790   -2.2160   -0.5730 o         1 MOL     -0.499869
    136 C45         7.9970   -5.4660   -1.3080 c3        1 MOL     -0.245650
    137 H62         5.7410   -4.9060   -1.9880 hn        1 MOL      0.275679
    138 H63         7.3520   -4.1730    0.2990 h1        1 MOL      0.069971
    139 H64         8.9520   -5.4950   -0.7800 hc        1 MOL      0.078236
    140 H65         7.4950   -6.4120   -1.0870 hc        1 MOL      0.078236
    141 H66         8.2390   -5.3860   -2.3680 hc        1 MOL      0.078236
    142 N13         7.4810   -2.3340   -2.3270 n         1 MOL     -0.248621
    143 C46         7.8460   -0.9660   -2.7460 c3        1 MOL      0.076517
    144 C47         7.2660    0.0410   -1.7650 c         1 MOL      0.345297
    145 O19         8.0150    0.9550   -1.4050 o         1 MOL     -0.491451
    146 C48         7.5340   -0.7440   -4.2410 c3        1 MOL     -0.223789
    147 H67         7.0890   -3.0450   -2.9340 hn        1 MOL      0.239421
    148 H68         8.9350   -0.9600   -2.6990 h1        1 MOL      0.090437
    149 H69         7.8200    0.2650   -4.5420 hc        1 MOL      0.063450
    150 H70         8.1740   -1.4970   -4.7070 hc        1 MOL      0.063450
    151 H71         6.5180   -0.9920   -4.5210 hc        1 MOL      0.063450
    152 N14         5.9840   -0.0090   -1.3470 n         1 MOL      0.005006
    153 C49         5.4300    0.9760   -0.4200 c3        1 MOL     -0.108536
    154 C50         6.1930    0.9200    0.8570 c         1 MOL      0.432744
    155 O20         6.5090    2.0030    1.3750 o         1 MOL     -0.548381
    156 C51         3.9340    0.6430   -0.3160 c3        1 MOL     -0.046530
    157 C52         2.9910    1.1800   -1.4580 c3        1 MOL     -0.032700
    158 C53         1.5400    0.6930   -1.3300 c         1 MOL      0.713732
    159 O21         1.1960   -0.3770   -1.8540 o         1 MOL     -0.748519
    160 O22         0.7560    1.3370   -0.6370 o         1 MOL     -0.748519
    161 H72         5.3140   -0.6530   -1.7450 hn        1 MOL      0.028942
    162 H73         5.5340    2.0040   -0.7890 h1        1 MOL      0.085350
    163 H74         3.6040    1.0280    0.6580 hc        1 MOL      0.037224
    164 H75         3.7450   -0.4270   -0.3700 hc        1 MOL      0.037224
    165 H76         3.4090    0.9670   -2.4410 hc        1 MOL      0.003442
    166 H77         2.9950    2.2740   -1.4420 hc        1 MOL      0.003442
    167 N15         6.5320   -0.2910    1.3470 n         1 MOL     -0.078972
    168 C54         7.5110   -0.4460    2.4750 c3        1 MOL     -0.248791
    169 H78         8.4250    0.0980    2.2390 h1        1 MOL      0.100799
    170 H79         7.0770   -0.0470    3.3910 h1        1 MOL      0.100799
    171 H80         7.7420   -1.5020    2.6130 h1        1 MOL      0.100799
    172 H81         6.1250   -1.1330    0.9780 hn        1 MOL      0.148805
    173 Ca1        -1.5800    0.2210   -1.5110 Ca        1 MOL      1.729661
    174 O23        -1.2910   -2.1510   -2.3720 oh        1 MOL     -0.778603
    175 H82        -1.1940   -2.1610   -3.3310 ho        1 MOL      0.402318
    176 H83        -1.0430   -3.0330   -2.1070 ho        1 MOL      0.402318
@<TRIPOS>BOND
     1    1    2 1   
     2    1    4 1   
     3    1    5 1   
     4    1    6 1   
     5    2    3 2   
     6    2    7 1   
     7    7    8 1   
     8    7   15 1   
     9    8    9 1   
    10    8   11 1   
    11    8   16 1   
    12    9   10 2   
    13    9   19 1   
    14   11   12 1   
    15   11   17 1   
    16   11   18 1   
    17   12   13 1   
    18   12   14 1   
    19   19   20 1   
    20   19   28 1   
    21   20   21 1   
    22   20   23 1   
    23   20   29 1   
    24   21   22 2   
    25   21   41 1   
    26   23   24 1   
    27   23   30 1   
    28   23   31 1   
    29   24   25 1   
    30   24   32 1   
    31   24   33 1   
    32   25   26 1   
    33   25   34 1   
    34   25   35 1   
    35   26   27 1   
    36   26   36 1   
    37   26   37 1   
    38   27   38 1   
    39   27   39 1   
    40   27   40 1   
    41   41   42 1   
    42   41   49 1   
    43   42   43 1   
    44   42   45 1   
    45   42   50 1   
    46   43   44 2   
    47   43   53 1   
    48   45   46 1   
    49   45   51 1   
    50   45   52 1   
    51   46   47 1   
    52   46   48 1   
    53   53   54 1   
    54   53   57 1   
    55   54   55 1   
    56   54   58 1   
    57   54   59 1   
    58   55   56 2   
    59   55   60 1   
    60   60   61 1   
    61   60   68 1   
    62   61   62 1   
    63   61   64 1   
    64   61   69 1   
    65   62   63 2   
    66   62   74 1   
    67   64   65 1   
    68   64   70 1   
    69   64   71 1   
    70   65   66 1   
    71   65   67 2   
    72   66   72 1   
    73   66   73 1   
    74   74   75 1   
    75   74   78 1   
    76   75   76 1   
    77   75   79 1   
    78   75   80 1   
    79   76   77 2   
    80   76   81 1   
    81   81   82 1   
    82   81   93 1   
    83   82   83 1   
    84   82   85 1   
    85   82   94 1   
    86   83   84 2   
    87   83  102 1   
    88   85   86 1   
    89   85   95 1   
    90   85   96 1   
    91   86   87 ar  
    92   86   88 ar  
    93   87   89 ar  
    94   87   97 1   
    95   88   90 ar  
    96   88   98 1   
    97   89   91 ar  
    98   89   99 1   
    99   90   91 ar  
   100   90  100 1   
   101   91   92 1   
   102   92  101 1   
   103  102  103 1   
   104  102  110 1   
   105  103  104 1   
   106  103  106 1   
   107  103  111 1   
   108  104  105 2   
   109  104  121 1   
   110  106  107 1   
   111  106  108 1   
   112  106  112 1   
   113  107  109 1   
   114  107  113 1   
   115  107  114 1   
   116  108  115 1   
   117  108  116 1   
   118  108  117 1   
   119  109  118 1   
   120  109  119 1   
   121  109  120 1   
   122  121  122 1   
   123  121  127 1   
   124  122  123 1   
   125  122  125 1   
   126  122  128 1   
   127  123  124 2   
   128  123  132 1   
   129  125  126 1   
   130  125  129 1   
   131  125  130 1   
   132  126  131 1   
   133  132  133 1   
   134  132  137 1   
   135  133  134 1   
   136  133  136 1   
   137  133  138 1   
   138  134  135 2   
   139  134  142 1   
   140  136  139 1   
   141  136  140 1   
   142  136  141 1   
   143  142  143 1   
   144  142  147 1   
   145  143  144 1   
   146  143  146 1   
   147  143  148 1   
   148  144  145 2   
   149  144  152 1   
   150  146  149 1   
   151  146  150 1   
   152  146  151 1   
   153  152  153 1   
   154  152  161 1   
   155  153  154 1   
   156  153  156 1   
   157  153  162 1   
   158  154  155 2   
   159  154  167 1   
   160  156  157 1   
   161  156  163 1   
   162  156  164 1   
   163  157  158 1   
   164  157  165 1   
   165  157  166 1   
   166  158  159 1   
   167  158  160 1   
   168  167  168 1   
   169  167  172 1   
   170  168  169 1   
   171  168  170 1   
   172  168  171 1   
   173  174  175 1   
   174  174  176 1   
@<TRIPOS>SUBSTRUCTURE
     1 MOL         1 TEMP              0 ****  ****    0 ROOT
