@<TRIPOS>MOLECULE
MOL
  172   171     1     0     0
SMALL
resp


@<TRIPOS>ATOM
      1 C1          0.3360    3.6750    5.6340 c3        1 MOL     -0.486735
      2 C2         -0.2990    3.6110    4.2200 c         1 MOL      0.752722
      3 O1          0.4280    3.6630    3.2690 o         1 MOL     -0.519619
      4 H1          1.2890    3.1450    5.6290 hc        1 MOL      0.113844
      5 H2          0.5020    4.7160    5.9110 hc        1 MOL      0.113844
      6 H3         -0.3340    3.2090    6.3570 hc        1 MOL      0.113844
      7 N1         -1.6280    3.5610    4.0980 n         1 MOL     -0.649590
      8 C3         -2.2310    3.4210    2.7860 c3        1 MOL      0.366572
      9 C4         -2.1490    4.7200    1.9140 c         1 MOL      0.438968
     10 O2         -2.0370    5.8050    2.4910 o         1 MOL     -0.560212
     11 C5         -3.6460    2.9160    3.0020 c3        1 MOL     -0.343727
     12 C6         -4.3670    2.6260    1.7480 c         1 MOL      0.788444
     13 O3         -5.5550    2.9640    1.7960 o         1 MOL     -0.681243
     14 O4         -3.7400    2.1050    0.8260 o         1 MOL     -0.681243
     15 H4         -2.2060    3.5960    4.9240 hn        1 MOL      0.314372
     16 H5         -1.6910    2.6320    2.2540 h1        1 MOL     -0.078646
     17 H6         -4.1970    3.7120    3.4990 hc        1 MOL      0.048966
     18 H7         -3.6680    2.0090    3.5890 hc        1 MOL      0.048966
     19 N2         -2.1200    4.5420    0.5850 n         1 MOL     -0.249139
     20 C7         -2.1530    5.5820   -0.4740 c3        1 MOL      0.059516
     21 C8         -2.9310    5.1280   -1.7290 c         1 MOL      0.537706
     22 O5         -2.8470    5.7750   -2.7690 o         1 MOL     -0.546081
     23 C9         -0.6950    6.0350   -0.6810 c3        1 MOL     -0.116663
     24 H8         -1.9430    3.6120    0.2610 hn        1 MOL      0.239696
     25 H9         -2.6120    6.4740   -0.0640 h1        1 MOL      0.045354
     26 H10        -0.6310    6.6770   -1.5590 hc        1 MOL      0.031124
     27 H11        -0.2250    6.4470    0.2090 hc        1 MOL      0.031124
     28 H12         0.0160    5.2510   -0.9030 hc        1 MOL      0.031124
     29 N3         -3.7830    4.0530   -1.6570 n         1 MOL     -0.362680
     30 C10        -4.6530    3.5330   -2.7550 c3        1 MOL      0.159174
     31 C11        -5.9170    2.7110   -2.2590 c         1 MOL      0.367324
     32 O6         -6.8570    2.7150   -2.9990 o         1 MOL     -0.544302
     33 C12        -3.7790    2.6880   -3.7640 c3        1 MOL     -0.422887
     34 C13        -3.1790    1.5100   -3.0840 c         1 MOL      0.850057
     35 O7         -3.7720    0.8820   -2.2010 o         1 MOL     -0.730047
     36 O8         -2.0040    1.1720   -3.2450 o         1 MOL     -0.730047
     37 H13        -3.8720    3.6210   -0.7480 hn        1 MOL      0.104847
     38 H14        -5.0180    4.4400   -3.2320 h1        1 MOL      0.056791
     39 H15        -2.9610    3.3300   -4.0780 hc        1 MOL      0.111242
     40 H16        -4.3560    2.2200   -4.5620 hc        1 MOL      0.111242
     41 N4         -6.0300    2.1960   -1.0660 n         1 MOL     -0.065728
     42 C14        -7.1960    1.4170   -0.6480 c3        1 MOL     -0.222755
     43 C15        -7.4650    0.1160   -1.3380 c         1 MOL      0.390133
     44 O9         -8.6240   -0.4470   -1.4070 o         1 MOL     -0.571551
     45 H17        -5.1730    2.2190   -0.5180 hn        1 MOL      0.085328
     46 H18        -8.0840    2.0290   -0.7810 h1        1 MOL      0.119001
     47 H19        -7.1190    1.3060    0.4400 h1        1 MOL      0.119001
     48 N5         -6.3920   -0.5380   -1.8690 n         1 MOL     -0.037123
     49 C16        -6.3400   -1.9160   -2.3880 c3        1 MOL     -0.131831
     50 C17        -6.5660   -2.9650   -1.3320 c         1 MOL      0.513942
     51 O10        -7.0780   -4.0470   -1.6160 o         1 MOL     -0.557236
     52 C18        -5.1270   -2.1070   -3.1970 c3        1 MOL     -0.047625
     53 C19        -3.7240   -2.2150   -2.5240 c         1 MOL      0.641913
     54 N6         -2.6860   -2.2720   -3.3280 n         1 MOL     -0.708242
     55 O11        -3.5900   -2.0670   -1.3310 o         1 MOL     -0.628394
     56 H20        -5.4970   -0.0720   -1.7990 hn        1 MOL      0.121238
     57 H21        -7.1900   -1.9580   -3.0740 h1        1 MOL      0.096793
     58 H22        -5.0870   -1.3060   -3.9350 hc        1 MOL      0.024629
     59 H23        -5.2090   -3.0530   -3.7310 hc        1 MOL      0.024629
     60 H24        -2.7790   -2.2850   -4.3310 hn        1 MOL      0.345018
     61 H25        -1.7660   -2.1290   -2.9190 hn        1 MOL      0.345018
     62 N7         -6.2110   -2.6970   -0.1050 n         1 MOL     -0.185537
     63 C20        -6.4920   -3.4860    1.1050 c3        1 MOL     -0.111580
     64 C21        -5.2450   -4.3030    1.5220 c         1 MOL      0.558442
     65 O12        -5.3530   -5.3760    2.0980 o         1 MOL     -0.591850
     66 H26        -5.9400   -1.7470    0.1010 hn        1 MOL      0.220651
     67 H27        -7.3370   -4.1690    1.0230 h1        1 MOL      0.071154
     68 H28        -6.7320   -2.8460    1.9540 h1        1 MOL      0.071154
     69 N8         -4.0420   -3.7790    1.3010 n         1 MOL     -0.067946
     70 C22        -2.7500   -4.5110    1.5590 c3        1 MOL     -0.449165
     71 C23        -1.6850   -3.4290    1.6080 c         1 MOL      0.663396
     72 O13        -1.8270   -2.4020    0.8540 o         1 MOL     -0.550690
     73 C24        -2.3130   -5.4950    0.4050 c3        1 MOL      0.658628
     74 C25        -3.0280   -6.8910    0.3500 c3        1 MOL     -0.507618
     75 O14        -2.5700   -4.8780   -0.8250 oh        1 MOL     -0.600450
     76 H29        -4.0980   -2.8040    1.0340 hn        1 MOL     -0.007786
     77 H30        -2.7660   -4.9310    2.5650 h1        1 MOL      0.137199
     78 H31        -1.2350   -5.6310    0.4730 h1        1 MOL     -0.084042
     79 H32        -2.5210   -3.9380   -0.6240 ho        1 MOL      0.346221
     80 H33        -2.9290   -7.2450   -0.6770 hc        1 MOL      0.126753
     81 H34        -2.6240   -7.5940    1.0750 hc        1 MOL      0.126753
     82 H35        -4.0630   -6.6770    0.6270 hc        1 MOL      0.126753
     83 N9         -0.6080   -3.6720    2.3820 n         1 MOL     -0.469141
     84 C26         0.5850   -2.9020    2.2700 c3        1 MOL     -0.023483
     85 C27         1.4300   -3.2520    1.0200 c         1 MOL      0.552188
     86 O15         1.7130   -4.4510    0.6030 o         1 MOL     -0.572495
     87 C28         1.4620   -2.9930    3.5120 c3        1 MOL      0.085937
     88 C29         0.7710   -2.1960    4.6720 c3        1 MOL      0.045338
     89 C30         2.9810   -2.7030    3.3370 c3        1 MOL     -0.235502
     90 C31         1.4530   -2.1830    6.0360 c3        1 MOL     -0.098316
     91 H36        -0.6400   -4.5990    2.7770 hn        1 MOL      0.282100
     92 H37         0.1410   -1.9170    2.1440 h1        1 MOL      0.015530
     93 H38         1.3770   -4.0560    3.6930 hc        1 MOL      0.012061
     94 H39        -0.2320   -2.5950    4.8250 hc        1 MOL      0.012429
     95 H40         0.8120   -1.1340    4.4100 hc        1 MOL      0.012429
     96 H41         3.5750   -3.3930    2.7440 hc        1 MOL      0.059239
     97 H42         3.1180   -1.7180    2.8900 hc        1 MOL      0.059239
     98 H43         3.4000   -2.6600    4.3470 hc        1 MOL      0.059239
     99 H44         2.3380   -1.5620    6.1350 hc        1 MOL      0.013606
    100 H45         0.6820   -1.8520    6.7320 hc        1 MOL      0.013606
    101 H46         1.7210   -3.2270    6.2180 hc        1 MOL      0.013606
    102 N10         2.0130   -2.2240    0.3160 n         1 MOL     -0.263738
    103 C32         2.8090   -2.3070   -0.9430 c3        1 MOL      0.048021
    104 C33         4.2450   -1.9250   -0.6940 c         1 MOL      0.470911
    105 O16         4.5520   -1.3680    0.3450 o         1 MOL     -0.382505
    106 C34         2.1880   -1.3770   -2.0810 c3        1 MOL     -0.173279
    107 C35         0.6420   -1.5030   -2.2110 c         1 MOL      0.742591
    108 O17        -0.0960   -0.9110   -1.3820 o         1 MOL     -0.660050
    109 O18         0.1760   -2.1360   -3.1780 o         1 MOL     -0.660050
    110 H47         1.8590   -1.2840    0.6450 hn        1 MOL      0.058556
    111 H48         2.7150   -3.3210   -1.3360 h1        1 MOL      0.090409
    112 H49         2.6560   -1.6930   -3.0140 hc        1 MOL      0.027297
    113 H50         2.4920   -0.3650   -1.8270 hc        1 MOL      0.027297
    114 N11         5.1310   -2.0470   -1.6930 n         1 MOL     -0.721631
    115 C36         6.5570   -1.5450   -1.5790 c3        1 MOL      0.425066
    116 C37         6.7450   -0.0750   -1.0400 c         1 MOL      0.354531
    117 O19         7.3490    0.0280   -0.0030 o         1 MOL     -0.496013
    118 C38         7.4400   -1.8170   -2.8240 c3        1 MOL     -0.262165
    119 C39         8.9380   -1.5260   -2.7020 ca        1 MOL      0.054192
    120 C40         9.6390   -2.2630   -1.7190 ca        1 MOL     -0.130150
    121 C41         9.6010   -0.4720   -3.4640 ca        1 MOL     -0.130150
    122 C42        10.9610   -1.8390   -1.3920 ca        1 MOL     -0.161465
    123 C43        10.9300   -0.1700   -3.1850 ca        1 MOL     -0.161465
    124 C44        11.5300   -0.7360   -2.0560 ca        1 MOL     -0.030492
    125 H51         4.8780   -2.5260   -2.5440 hn        1 MOL      0.363948
    126 H52         7.0940   -2.0740   -0.7960 h1        1 MOL      0.045030
    127 H53         7.0030   -1.4150   -3.7410 hc        1 MOL      0.060769
    128 H54         7.3360   -2.8920   -2.9990 hc        1 MOL      0.060769
    129 H55         9.2090   -3.0970   -1.1940 ha        1 MOL      0.125425
    130 H56         9.0620    0.0470   -4.2360 ha        1 MOL      0.125425
    131 H57        11.5180   -2.3150   -0.5940 ha        1 MOL      0.122986
    132 H58        11.4180    0.5680   -3.8030 ha        1 MOL      0.122986
    133 H59        12.5410   -0.4280   -1.8060 ha        1 MOL      0.075885
    134 N12         6.2190    1.0260   -1.5890 n         1 MOL     -0.150763
    135 C45         6.4390    2.3690   -1.0380 c3        1 MOL      0.175369
    136 C46         5.7600    2.5690    0.3100 c         1 MOL      0.188503
    137 O20         6.1330    3.2770    1.2210 o         1 MOL     -0.482238
    138 C47         5.9410    3.3720   -2.1580 c3        1 MOL     -0.219515
    139 C48         5.5340    2.4800   -3.3370 c3        1 MOL     -0.044056
    140 C49         5.3360    1.1200   -2.7500 c3        1 MOL     -0.006517
    141 H60         7.5300    2.4530   -1.0220 h1        1 MOL      0.054988
    142 H61         5.0000    3.8250   -1.8580 hc        1 MOL      0.096331
    143 H62         6.7950    3.9860   -2.4330 hc        1 MOL      0.096331
    144 H63         4.5800    2.7520   -3.7770 hc        1 MOL      0.028245
    145 H64         6.3110    2.3680   -4.0970 hc        1 MOL      0.028245
    146 H65         4.2900    0.9640   -2.5260 h1        1 MOL      0.065776
    147 H66         5.5300    0.3560   -3.4990 h1        1 MOL      0.065776
    148 N13         4.6900    1.8030    0.5100 n         1 MOL     -0.022827
    149 C50         4.0070    1.7350    1.8140 c3        1 MOL     -0.035384
    150 C51         4.8260    1.0140    2.8870 c         1 MOL      0.379137
    151 O21         4.8760    1.4650    4.0200 o         1 MOL     -0.551355
    152 C52         2.6280    1.1360    1.6540 c3        1 MOL     -0.307719
    153 C53         1.7320    2.0370    0.8030 c3        1 MOL     -0.357357
    154 C54         0.2580    1.6080    0.6900 c         1 MOL      0.726982
    155 O22        -0.2290    0.6810    1.3420 o         1 MOL     -0.722018
    156 O23        -0.4040    2.0660   -0.2690 o         1 MOL     -0.722018
    157 H67         4.4380    1.2490   -0.2950 hn        1 MOL      0.101254
    158 H68         3.9990    2.6990    2.3370 h1        1 MOL      0.127808
    159 H69         2.1910    1.0310    2.6530 hc        1 MOL      0.199567
    160 H70         2.7550    0.1730    1.1660 hc        1 MOL      0.199567
    161 H71         1.9710    2.0110   -0.2650 hc        1 MOL      0.147299
    162 H72         1.8340    3.0040    1.3010 hc        1 MOL      0.147299
    163 N14         5.6030   -0.0370    2.5460 n         1 MOL      0.119989
    164 C55         6.4590   -0.7110    3.4830 c3        1 MOL     -0.136428
    165 H73         7.1290   -1.3820    2.9450 h1        1 MOL      0.043803
    166 H74         7.0470    0.0240    4.0320 h1        1 MOL      0.043803
    167 H75         5.8530   -1.2870    4.1810 h1        1 MOL      0.043803
    168 H76         5.6630   -0.3220    1.5790 hn        1 MOL     -0.014968
    169 Ca1        -2.2280    0.0540   -0.3010 Ca        1 MOL      1.697804
    170 O24        -4.1940   -0.7500    1.4290 oh        1 MOL     -0.771081
    171 H77        -3.4790   -0.6280    2.0560 ho        1 MOL      0.409710
    172 H78        -4.9890   -0.5450    1.9270 ho        1 MOL      0.409710
@<TRIPOS>BOND
     1    1    2 1   
     2    1    4 1   
     3    1    5 1   
     4    1    6 1   
     5    2    3 2   
     6    2    7 1   
     7    7    8 1   
     8    7   15 1   
     9    8    9 1   
    10    8   11 1   
    11    8   16 1   
    12    9   10 2   
    13    9   19 1   
    14   11   12 1   
    15   11   17 1   
    16   11   18 1   
    17   12   13 1   
    18   12   14 1   
    19   19   20 1   
    20   19   24 1   
    21   20   21 1   
    22   20   23 1   
    23   20   25 1   
    24   21   22 2   
    25   21   29 1   
    26   23   26 1   
    27   23   27 1   
    28   23   28 1   
    29   29   30 1   
    30   29   37 1   
    31   30   31 1   
    32   30   33 1   
    33   30   38 1   
    34   31   32 2   
    35   31   41 1   
    36   33   34 1   
    37   33   39 1   
    38   33   40 1   
    39   34   35 1   
    40   34   36 1   
    41   41   42 1   
    42   41   45 1   
    43   42   43 1   
    44   42   46 1   
    45   42   47 1   
    46   43   44 2   
    47   43   48 1   
    48   48   49 1   
    49   48   56 1   
    50   49   50 1   
    51   49   52 1   
    52   49   57 1   
    53   50   51 2   
    54   50   62 1   
    55   52   53 1   
    56   52   58 1   
    57   52   59 1   
    58   53   54 1   
    59   53   55 2   
    60   54   60 1   
    61   54   61 1   
    62   62   63 1   
    63   62   66 1   
    64   63   64 1   
    65   63   67 1   
    66   63   68 1   
    67   64   65 2   
    68   64   69 1   
    69   69   70 1   
    70   69   76 1   
    71   70   71 1   
    72   70   73 1   
    73   70   77 1   
    74   71   72 2   
    75   71   83 1   
    76   73   74 1   
    77   73   75 1   
    78   73   78 1   
    79   74   80 1   
    80   74   81 1   
    81   74   82 1   
    82   75   79 1   
    83   83   84 1   
    84   83   91 1   
    85   84   85 1   
    86   84   87 1   
    87   84   92 1   
    88   85   86 2   
    89   85  102 1   
    90   87   88 1   
    91   87   89 1   
    92   87   93 1   
    93   88   90 1   
    94   88   94 1   
    95   88   95 1   
    96   89   96 1   
    97   89   97 1   
    98   89   98 1   
    99   90   99 1   
   100   90  100 1   
   101   90  101 1   
   102  102  103 1   
   103  102  110 1   
   104  103  104 1   
   105  103  106 1   
   106  103  111 1   
   107  104  105 2   
   108  104  114 1   
   109  106  107 1   
   110  106  112 1   
   111  106  113 1   
   112  107  108 1   
   113  107  109 1   
   114  114  115 1   
   115  114  125 1   
   116  115  116 1   
   117  115  118 1   
   118  115  126 1   
   119  116  117 2   
   120  116  134 1   
   121  118  119 1   
   122  118  127 1   
   123  118  128 1   
   124  119  120 ar  
   125  119  121 ar  
   126  120  122 ar  
   127  120  129 1   
   128  121  123 ar  
   129  121  130 1   
   130  122  124 ar  
   131  122  131 1   
   132  123  124 ar  
   133  123  132 1   
   134  124  133 1   
   135  134  135 1   
   136  134  140 1   
   137  135  136 1   
   138  135  138 1   
   139  135  141 1   
   140  136  137 2   
   141  136  148 1   
   142  138  139 1   
   143  138  142 1   
   144  138  143 1   
   145  139  140 1   
   146  139  144 1   
   147  139  145 1   
   148  140  146 1   
   149  140  147 1   
   150  148  149 1   
   151  148  157 1   
   152  149  150 1   
   153  149  152 1   
   154  149  158 1   
   155  150  151 2   
   156  150  163 1   
   157  152  153 1   
   158  152  159 1   
   159  152  160 1   
   160  153  154 1   
   161  153  161 1   
   162  153  162 1   
   163  154  155 1   
   164  154  156 1   
   165  163  164 1   
   166  163  168 1   
   167  164  165 1   
   168  164  166 1   
   169  164  167 1   
   170  170  171 1   
   171  170  172 1   
@<TRIPOS>SUBSTRUCTURE
     1 MOL         1 TEMP              0 ****  ****    0 ROOT
