@<TRIPOS>MOLECULE
MOL
  175   173     1     0     0
SMALL
resp


@<TRIPOS>ATOM
      1 C1          0.3590    4.0700    5.6320 c3        1 MOL     -0.356515
      2 C2         -0.1430    4.1350    4.1450 c         1 MOL      0.700149
      3 O1          0.5510    4.3470    3.1900 o         1 MOL     -0.523150
      4 H1          0.0110    4.9500    6.1710 hc        1 MOL      0.085590
      5 H2         -0.0340    3.1720    6.1100 hc        1 MOL      0.085590
      6 H3          1.4480    4.0420    5.6470 hc        1 MOL      0.085590
      7 N1         -1.4760    4.0690    3.9910 n         1 MOL     -0.622775
      8 C3         -2.1450    3.7150    2.7210 c3        1 MOL      0.121563
      9 C4         -2.3870    4.8550    1.7430 c         1 MOL      0.718836
     10 O2         -2.5580    5.9840    2.1970 o         1 MOL     -0.594958
     11 C5         -3.5480    3.0330    2.9950 c3        1 MOL     -0.271650
     12 C6         -4.1150    2.1100    1.8820 c         1 MOL      0.744742
     13 O3         -5.1600    1.3960    2.0560 o         1 MOL     -0.701791
     14 O4         -3.5360    1.9630    0.7760 o         1 MOL     -0.701791
     15 H4         -2.0050    3.8540    4.8160 hn        1 MOL      0.307256
     16 H5         -1.5440    2.9510    2.2270 h1        1 MOL      0.101803
     17 H6         -4.2560    3.8180    3.2870 hc        1 MOL      0.060295
     18 H7         -3.5170    2.4250    3.9020 hc        1 MOL      0.060295
     19 N2         -2.3810    4.5640    0.4560 n         1 MOL     -0.709840
     20 C7         -2.3070    5.5120   -0.6240 c3        1 MOL      0.314886
     21 C8         -3.2680    5.1950   -1.7970 c         1 MOL      0.347154
     22 O5         -3.1690    5.7730   -2.8910 o         1 MOL     -0.530787
     23 C9         -0.8300    5.4190   -1.0120 c3        1 MOL     -0.318039
     24 H8         -2.1200    3.6390    0.1420 hn        1 MOL      0.408622
     25 H9         -2.4830    6.5150   -0.2410 h1        1 MOL      0.019347
     26 H10        -0.5610    4.3990   -1.3100 hc        1 MOL      0.087496
     27 H11        -0.6320    5.9940   -1.9100 hc        1 MOL      0.087496
     28 H12        -0.2380    5.8420   -0.2010 hc        1 MOL      0.087496
     29 N3         -4.0230    4.0860   -1.6460 n         1 MOL     -0.262657
     30 C10        -4.8770    3.5180   -2.7500 c3        1 MOL      0.066834
     31 C11        -6.1080    2.7680   -2.2570 c         1 MOL      0.384693
     32 O6         -7.0920    2.7390   -3.0190 o         1 MOL     -0.545591
     33 C12        -4.0970    2.4410   -3.5160 c3        1 MOL      0.055285
     34 C13        -3.3430    1.4760   -2.6440 c         1 MOL      0.613272
     35 O7         -2.1010    1.4380   -2.7000 o         1 MOL     -0.678851
     36 O8         -3.9320    0.7280   -1.8540 o         1 MOL     -0.678851
     37 H13        -3.9860    3.5850   -0.7670 hn        1 MOL      0.133021
     38 H14        -5.2440    4.2680   -3.4580 h1        1 MOL      0.070718
     39 H15        -3.4210    2.8970   -4.2300 hc        1 MOL     -0.011279
     40 H16        -4.7710    1.9000   -4.1820 hc        1 MOL     -0.011279
     41 N4         -6.1500    2.2800   -1.0060 n         1 MOL     -0.298047
     42 C14        -7.3530    1.5230   -0.5070 c3        1 MOL     -0.284509
     43 C15        -7.4040    0.0590   -0.8810 c         1 MOL      0.531833
     44 O9         -8.4040   -0.5930   -0.7460 o         1 MOL     -0.618827
     45 H17        -5.3250    2.3370   -0.4320 hn        1 MOL      0.275306
     46 H18        -8.2720    1.9700   -0.8650 h1        1 MOL      0.146770
     47 H19        -7.3250    1.4440    0.5800 h1        1 MOL      0.146770
     48 N5         -6.3700   -0.5290   -1.4770 n         1 MOL     -0.073287
     49 C16        -6.2840   -1.8380   -2.0500 c3        1 MOL     -0.167943
     50 C17        -6.4420   -3.0290   -0.9570 c         1 MOL      0.601378
     51 O10        -6.6880   -4.1270   -1.3370 o         1 MOL     -0.563160
     52 C18        -5.1650   -2.0330   -3.0360 c3        1 MOL     -0.054457
     53 C19        -3.7910   -2.1350   -2.4500 c         1 MOL      0.706416
     54 N6         -2.7810   -2.1590   -3.3000 n         1 MOL     -0.760754
     55 O11        -3.5460   -2.1070   -1.2250 o         1 MOL     -0.576230
     56 H20        -5.4810   -0.0680   -1.5820 hn        1 MOL      0.139183
     57 H21        -7.2040   -1.9240   -2.6210 h1        1 MOL      0.084114
     58 H22        -5.1150   -1.1480   -3.6710 hc        1 MOL      0.030846
     59 H23        -5.2430   -2.8850   -3.7150 hc        1 MOL      0.030846
     60 H24        -2.8280   -2.0660   -4.3040 hn        1 MOL      0.363098
     61 H25        -1.8720   -2.0110   -2.8820 hn        1 MOL      0.363098
     62 N7         -6.3130   -2.6900    0.3250 n         1 MOL     -0.364123
     63 C20        -6.3540   -3.6560    1.4390 c3        1 MOL     -0.284574
     64 C21        -5.0500   -4.4080    1.6870 c         1 MOL      0.577957
     65 O12        -5.0220   -5.2670    2.5570 o         1 MOL     -0.595476
     66 H26        -5.9920   -1.7710    0.5870 hn        1 MOL      0.348683
     67 H27        -7.1260   -4.3620    1.1350 h1        1 MOL      0.137534
     68 H28        -6.7620   -3.1430    2.3090 h1        1 MOL      0.137534
     69 N8         -3.9280   -3.9630    1.0580 n         1 MOL     -0.256064
     70 C22        -2.5500   -4.5810    1.1530 c3        1 MOL      0.030196
     71 C23        -1.4790   -3.5580    1.3600 c         1 MOL      0.326139
     72 O13        -1.6230   -2.3980    0.9510 o         1 MOL     -0.434062
     73 C24        -2.1590   -5.3690   -0.1100 c3        1 MOL      0.507045
     74 C25        -2.7170   -6.7840   -0.3510 c3        1 MOL     -0.418507
     75 O14        -2.5910   -4.7230   -1.3150 oh        1 MOL     -0.573007
     76 H29        -4.0960   -3.1690    0.4690 hn        1 MOL      0.118993
     77 H30        -2.5920   -5.3060    1.9710 h1        1 MOL      0.057741
     78 H31        -1.0790   -5.5220   -0.0410 h1        1 MOL     -0.047063
     79 H32        -2.4810   -3.7840   -1.1450 ho        1 MOL      0.287847
     80 H33        -2.4540   -7.3870    0.5160 hc        1 MOL      0.094862
     81 H34        -3.7960   -6.6270   -0.3260 hc        1 MOL      0.094862
     82 H35        -2.4300   -7.1940   -1.3210 hc        1 MOL      0.094862
     83 N9         -0.3470   -3.8750    2.0000 n         1 MOL     -0.387492
     84 C26         0.9010   -3.0680    2.0000 c3        1 MOL     -0.187888
     85 C27         1.5280   -3.1670    0.5590 c         1 MOL      0.593158
     86 O15         1.6410   -4.2980    0.0790 o         1 MOL     -0.581355
     87 C28         1.8260   -3.4010    3.1970 c3        1 MOL      0.209350
     88 C29         1.0980   -2.9220    4.5060 c3        1 MOL      0.118322
     89 C30         3.2550   -2.8110    2.9300 c3        1 MOL     -0.342619
     90 C31         2.0180   -3.0410    5.7750 c3        1 MOL     -0.088235
     91 H36        -0.2450   -4.8480    2.2560 hn        1 MOL      0.267035
     92 H37         0.5560   -2.0370    2.1510 h1        1 MOL      0.101772
     93 H38         1.9770   -4.4690    3.3690 hc        1 MOL     -0.009624
     94 H39         0.2640   -3.6120    4.5660 hc        1 MOL     -0.025655
     95 H40         0.7750   -1.8870    4.5000 hc        1 MOL     -0.025655
     96 H41         3.1690   -1.7900    2.5440 hc        1 MOL      0.071390
     97 H42         3.9660   -2.7010    3.7570 hc        1 MOL      0.071390
     98 H43         3.7540   -3.4980    2.2480 hc        1 MOL      0.071390
     99 H44         2.3400   -4.0830    5.8210 hc        1 MOL      0.006716
    100 H45         2.9260   -2.4360    5.7980 hc        1 MOL      0.006716
    101 H46         1.3150   -2.8160    6.5790 hc        1 MOL      0.006716
    102 N10         1.9900   -2.0600   -0.0160 n         1 MOL     -0.171983
    103 C32         2.6610   -2.0380   -1.2650 c3        1 MOL     -0.018084
    104 C33         4.0930   -1.4390   -1.0910 c         1 MOL      0.207897
    105 O16         4.3430   -0.7480   -0.0800 o         1 MOL     -0.267800
    106 C34         1.9700   -1.2420   -2.3900 c3        1 MOL     -0.034177
    107 C35         0.5190   -1.6420   -2.5750 c         1 MOL      0.532289
    108 O17         0.0190   -1.8190   -3.7420 o         1 MOL     -0.636109
    109 O18        -0.2870   -1.3220   -1.6550 o         1 MOL     -0.636109
    110 H47         1.8380   -1.1760    0.4500 hn        1 MOL      0.199537
    111 H48         2.8190   -3.0720   -1.5630 h1        1 MOL      0.062175
    112 H49         2.4690   -1.3450   -3.3590 hc        1 MOL      0.022682
    113 H50         2.0440   -0.1820   -2.1430 hc        1 MOL      0.022682
    114 N11         5.0880   -1.5330   -1.9810 n         1 MOL     -0.298734
    115 C36         6.4840   -1.2640   -1.6280 c3        1 MOL      0.071560
    116 C37         6.6960    0.1860   -1.1230 c         1 MOL      0.471722
    117 O19         7.3120    0.2140   -0.0460 o         1 MOL     -0.517562
    118 C38         7.4060   -1.6720   -2.7460 c3        1 MOL     -0.238383
    119 C39         8.8750   -1.5620   -2.2320 ca        1 MOL      0.082904
    120 C40         9.6840   -0.5670   -2.8330 ca        1 MOL     -0.119703
    121 C41         9.4060   -2.4590   -1.2930 ca        1 MOL     -0.119703
    122 C42        11.0040   -0.4680   -2.4400 ca        1 MOL     -0.177234
    123 C43        10.7860   -2.3640   -0.9190 ca        1 MOL     -0.177234
    124 C44        11.5640   -1.2720   -1.4190 ca        1 MOL     -0.040140
    125 H51         4.8940   -2.0960   -2.7960 hn        1 MOL      0.264184
    126 H52         6.6670   -1.9100   -0.7790 h1        1 MOL      0.113105
    127 H53         7.1760   -1.0530   -3.6100 hc        1 MOL      0.081037
    128 H54         7.1840   -2.6590   -3.1380 hc        1 MOL      0.081037
    129 H55         9.2940    0.1680   -3.5240 ha        1 MOL      0.112904
    130 H56         8.7740   -3.1350   -0.7350 ha        1 MOL      0.112904
    131 H57        11.6280    0.3240   -2.8200 ha        1 MOL      0.124315
    132 H58        11.2050   -2.9620   -0.1240 ha        1 MOL      0.124315
    133 H59        12.5860   -1.1230   -1.0920 ha        1 MOL      0.087353
    134 N12         6.3530    1.3560   -1.7190 n         1 MOL     -0.238494
    135 C45         6.5840    2.7050   -1.2240 c3        1 MOL      0.045849
    136 C46         5.7770    2.8340    0.1450 c         1 MOL      0.342608
    137 O20         6.1310    3.6650    0.9540 o         1 MOL     -0.506014
    138 C47         6.0860    3.5960   -2.3290 c3        1 MOL     -0.207305
    139 C48         5.1110    2.7780   -3.1120 c3        1 MOL      0.080770
    140 C49         5.6580    1.4370   -3.0130 c3        1 MOL      0.122218
    141 H60         7.5950    2.9050   -0.8730 h1        1 MOL      0.080584
    142 H61         5.5820    4.4890   -1.9690 hc        1 MOL      0.073222
    143 H62         6.9490    3.8300   -2.9600 hc        1 MOL      0.073222
    144 H63         4.1640    2.8100   -2.5670 hc        1 MOL      0.004016
    145 H64         4.9880    3.0410   -4.1620 hc        1 MOL      0.004016
    146 H65         4.9060    0.6710   -3.1690 h1        1 MOL     -0.014190
    147 H66         6.3130    1.3420   -3.8740 h1        1 MOL     -0.014190
    148 N13         4.7260    2.0490    0.4110 n         1 MOL     -0.092423
    149 C50         4.0530    1.9800    1.7480 c3        1 MOL     -0.083540
    150 C51         4.8790    1.1320    2.6840 c         1 MOL      0.401427
    151 O21         5.1300    1.5620    3.7980 o         1 MOL     -0.560188
    152 C52         2.6870    1.3840    1.7060 c3        1 MOL     -0.035107
    153 C53         1.7840    1.9300    0.6320 c3        1 MOL     -0.013046
    154 C54         0.4670    1.1750    0.5190 c         1 MOL      0.639928
    155 O22        -0.4760    1.7880   -0.0340 o         1 MOL     -0.710294
    156 O23         0.2400    0.0820    1.1570 o         1 MOL     -0.710294
    157 H67         4.4050    1.4130   -0.3040 hn        1 MOL      0.190870
    158 H68         4.0270    2.9690    2.2180 h1        1 MOL      0.108655
    159 H69         2.1970    1.4110    2.6790 hc        1 MOL      0.026426
    160 H70         2.7200    0.2910    1.6320 hc        1 MOL      0.026426
    161 H71         2.2930    1.8740   -0.3190 hc        1 MOL      0.009015
    162 H72         1.6750    2.9930    0.8600 hc        1 MOL      0.009015
    163 N14         5.5280    0.0110    2.2940 n         1 MOL      0.029325
    164 C55         6.5740   -0.7260    3.0620 c3        1 MOL     -0.205178
    165 H73         6.5080   -0.4570    4.1160 h1        1 MOL      0.076696
    166 H74         6.4200   -1.7980    2.9500 h1        1 MOL      0.076696
    167 H75         7.5600   -0.4590    2.6810 h1        1 MOL      0.076696
    168 H76         5.2330   -0.3490    1.3990 hn        1 MOL      0.005310
    169 Ca1        -2.1070   -0.1340   -0.3070 Ca        1 MOL      1.695076
    170 O24        -1.9020    0.2720    2.7960 oh        1 MOL     -0.877199
    171 H77        -1.0300   -0.0260    2.5410 ho        1 MOL      0.414367
    172 H78        -1.7970    0.5220    3.7160 ho        1 MOL      0.414367
    173 O25        -4.2290   -0.9140    1.3140 oh        1 MOL     -0.877199
    174 H79        -3.3990   -0.7860    1.7730 ho        1 MOL      0.414367
    175 H80        -4.8180   -0.2510    1.6920 ho        1 MOL      0.414367
@<TRIPOS>BOND
     1    1    2 1   
     2    1    4 1   
     3    1    5 1   
     4    1    6 1   
     5    2    3 2   
     6    2    7 1   
     7    7    8 1   
     8    7   15 1   
     9    8    9 1   
    10    8   11 1   
    11    8   16 1   
    12    9   10 2   
    13    9   19 1   
    14   11   12 1   
    15   11   17 1   
    16   11   18 1   
    17   12   13 1   
    18   12   14 1   
    19   19   20 1   
    20   19   24 1   
    21   20   21 1   
    22   20   23 1   
    23   20   25 1   
    24   21   22 2   
    25   21   29 1   
    26   23   26 1   
    27   23   27 1   
    28   23   28 1   
    29   29   30 1   
    30   29   37 1   
    31   30   31 1   
    32   30   33 1   
    33   30   38 1   
    34   31   32 2   
    35   31   41 1   
    36   33   34 1   
    37   33   39 1   
    38   33   40 1   
    39   34   35 1   
    40   34   36 1   
    41   41   42 1   
    42   41   45 1   
    43   42   43 1   
    44   42   46 1   
    45   42   47 1   
    46   43   44 2   
    47   43   48 1   
    48   48   49 1   
    49   48   56 1   
    50   49   50 1   
    51   49   52 1   
    52   49   57 1   
    53   50   51 2   
    54   50   62 1   
    55   52   53 1   
    56   52   58 1   
    57   52   59 1   
    58   53   54 1   
    59   53   55 2   
    60   54   60 1   
    61   54   61 1   
    62   62   63 1   
    63   62   66 1   
    64   63   64 1   
    65   63   67 1   
    66   63   68 1   
    67   64   65 2   
    68   64   69 1   
    69   69   70 1   
    70   69   76 1   
    71   70   71 1   
    72   70   73 1   
    73   70   77 1   
    74   71   72 2   
    75   71   83 1   
    76   73   74 1   
    77   73   75 1   
    78   73   78 1   
    79   74   80 1   
    80   74   81 1   
    81   74   82 1   
    82   75   79 1   
    83   83   84 1   
    84   83   91 1   
    85   84   85 1   
    86   84   87 1   
    87   84   92 1   
    88   85   86 2   
    89   85  102 1   
    90   87   88 1   
    91   87   89 1   
    92   87   93 1   
    93   88   90 1   
    94   88   94 1   
    95   88   95 1   
    96   89   96 1   
    97   89   97 1   
    98   89   98 1   
    99   90   99 1   
   100   90  100 1   
   101   90  101 1   
   102  102  103 1   
   103  102  110 1   
   104  103  104 1   
   105  103  106 1   
   106  103  111 1   
   107  104  105 2   
   108  104  114 1   
   109  106  107 1   
   110  106  112 1   
   111  106  113 1   
   112  107  108 1   
   113  107  109 1   
   114  114  115 1   
   115  114  125 1   
   116  115  116 1   
   117  115  118 1   
   118  115  126 1   
   119  116  117 2   
   120  116  134 1   
   121  118  119 1   
   122  118  127 1   
   123  118  128 1   
   124  119  120 ar  
   125  119  121 ar  
   126  120  122 ar  
   127  120  129 1   
   128  121  123 ar  
   129  121  130 1   
   130  122  124 ar  
   131  122  131 1   
   132  123  124 ar  
   133  123  132 1   
   134  124  133 1   
   135  134  135 1   
   136  134  140 1   
   137  135  136 1   
   138  135  138 1   
   139  135  141 1   
   140  136  137 2   
   141  136  148 1   
   142  138  139 1   
   143  138  142 1   
   144  138  143 1   
   145  139  140 1   
   146  139  144 1   
   147  139  145 1   
   148  140  146 1   
   149  140  147 1   
   150  148  149 1   
   151  148  157 1   
   152  149  150 1   
   153  149  152 1   
   154  149  158 1   
   155  150  151 2   
   156  150  163 1   
   157  152  153 1   
   158  152  159 1   
   159  152  160 1   
   160  153  154 1   
   161  153  161 1   
   162  153  162 1   
   163  154  155 1   
   164  154  156 1   
   165  163  164 1   
   166  163  168 1   
   167  164  165 1   
   168  164  166 1   
   169  164  167 1   
   170  170  171 1   
   171  170  172 1   
   172  173  174 1   
   173  173  175 1   
@<TRIPOS>SUBSTRUCTURE
     1 MOL         1 TEMP              0 ****  ****    0 ROOT
