@<TRIPOS>MOLECULE
MOL
  179   176     1     0     0
SMALL
resp


@<TRIPOS>ATOM
      1 C1          1.7260    4.3890    4.3030 c3        1 MOL     -0.299704
      2 C2          1.0160    3.7880    3.0670 c         1 MOL      0.709491
      3 O1          1.6740    3.6460    2.0310 o         1 MOL     -0.593076
      4 H1          1.9450    5.4410    4.1200 hc        1 MOL      0.076414
      5 H2          1.0780    4.3000    5.1750 hc        1 MOL      0.076414
      6 H3          2.6570    3.8520    4.4850 hc        1 MOL      0.076414
      7 N1         -0.2970    3.5650    3.1090 n         1 MOL     -0.724702
      8 C3         -1.1010    3.0860    2.0020 c3        1 MOL      0.044415
      9 C4         -1.9500    4.2090    1.2740 c         1 MOL      0.640522
     10 O2         -3.1600    4.3260    1.4860 o         1 MOL     -0.499752
     11 C5         -1.9930    1.8580    2.5750 c3        1 MOL      0.130996
     12 C6         -2.8240    1.1030    1.5380 c         1 MOL      0.599472
     13 O3         -3.9760    0.6430    1.8270 o         1 MOL     -0.722829
     14 O4         -2.2760    0.9320    0.4040 o         1 MOL     -0.722829
     15 H4         -0.7830    3.7260    3.9730 hn        1 MOL      0.363081
     16 H5         -0.4280    2.6780    1.2440 h1        1 MOL      0.079654
     17 H6         -2.6800    2.2620    3.3270 hc        1 MOL     -0.031201
     18 H7         -1.3580    1.1030    3.0150 hc        1 MOL     -0.031201
     19 N2         -1.1900    4.9390    0.4410 n         1 MOL     -0.523093
     20 C7         -1.6700    6.0810   -0.2800 c3        1 MOL      0.012585
     21 C8         -2.8190    5.7490   -1.2980 c         1 MOL      0.408631
     22 O5         -3.6680    6.6100   -1.5910 o         1 MOL     -0.535258
     23 C9         -0.6520    6.9270   -0.9740 c3        1 MOL     -0.093460
     24 C10         0.3880    7.3810    0.0930 c3        1 MOL      0.172033
     25 C11         1.3330    8.2550   -0.7570 c3        1 MOL     -0.086565
     26 C12         2.7960    8.0590   -0.3930 c3        1 MOL      0.000144
     27 N3          3.0750    8.3600    1.0230 n4        1 MOL     -0.306351
     28 H8         -0.2930    4.5580    0.1790 hn        1 MOL      0.375195
     29 H9         -2.2320    6.7200    0.4050 h1        1 MOL      0.084260
     30 H10        -1.1180    7.7990   -1.4300 hc        1 MOL      0.068847
     31 H11        -0.3070    6.2110   -1.7090 hc        1 MOL      0.068847
     32 H12         0.8860    6.5050    0.5110 hc        1 MOL     -0.036848
     33 H13        -0.0280    7.9870    0.8910 hc        1 MOL     -0.036848
     34 H14         1.0990    9.3180   -0.7020 hc        1 MOL      0.045640
     35 H15         1.2570    8.0340   -1.8250 hc        1 MOL      0.045640
     36 H16         3.4480    8.7180   -0.9780 hx        1 MOL      0.103475
     37 H17         3.2400    7.1030   -0.6810 hx        1 MOL      0.103475
     38 H18         4.0400    8.2050    1.2640 hn        1 MOL      0.311201
     39 H19         2.9200    9.3420    1.1980 hn        1 MOL      0.311201
     40 H20         2.5000    7.8660    1.6910 hn        1 MOL      0.311201
     41 N4         -2.9050    4.5170   -1.8180 n         1 MOL     -0.232949
     42 C13        -4.0250    3.9720   -2.6120 c3        1 MOL     -0.013650
     43 C14        -5.1630    3.3020   -1.8020 c         1 MOL      0.377631
     44 O6         -6.3130    3.0740   -2.2730 o         1 MOL     -0.555494
     45 C15        -3.3640    3.0330   -3.5880 c3        1 MOL     -0.184238
     46 C16        -2.7890    1.7910   -2.9370 c         1 MOL      0.673717
     47 O7         -1.5930    1.7940   -2.5590 o         1 MOL     -0.690536
     48 O8         -3.4650    0.7630   -2.7210 o         1 MOL     -0.690536
     49 H21        -2.1890    3.8550   -1.5330 hn        1 MOL      0.173353
     50 H22        -4.5280    4.7010   -3.2520 h1        1 MOL      0.117107
     51 H23        -2.6380    3.5420   -4.2330 hc        1 MOL      0.059185
     52 H24        -4.0870    2.7060   -4.3340 hc        1 MOL      0.059185
     53 N5         -4.8720    3.0090   -0.5810 n         1 MOL      0.138422
     54 C17        -5.9380    2.7410    0.4720 c3        1 MOL     -0.276274
     55 C18        -6.7730    1.4550    0.2780 c         1 MOL      0.547726
     56 O9         -7.8890    1.3480    0.7390 o         1 MOL     -0.560265
     57 H25        -3.9320    3.1620   -0.2440 hn        1 MOL     -0.018560
     58 H26        -6.6370    3.5840    0.4500 h1        1 MOL      0.129010
     59 H27        -5.4860    2.6470    1.4540 h1        1 MOL      0.129010
     60 N6         -6.2440    0.4810   -0.4960 n         1 MOL     -0.151228
     61 C19        -6.7480   -0.8890   -0.5900 c3        1 MOL     -0.046015
     62 C20        -6.6890   -1.7810    0.6420 c         1 MOL      0.449269
     63 O10        -7.4300   -2.7480    0.6170 o         1 MOL     -0.529422
     64 C21        -5.8860   -1.4460   -1.7380 c3        1 MOL     -0.177380
     65 C22        -4.8010   -2.4530   -1.3370 c         1 MOL      0.628572
     66 N7         -5.0480   -3.7250   -1.6350 n         1 MOL     -0.675989
     67 O11        -3.7400   -2.1460   -0.9400 o         1 MOL     -0.607568
     68 H28        -5.3520    0.5780   -0.9380 hn        1 MOL      0.074547
     69 H29        -7.7730   -0.7270   -0.9010 h1        1 MOL      0.104621
     70 H30        -5.3490   -0.6620   -2.2810 hc        1 MOL      0.078918
     71 H31        -6.5500   -1.9750   -2.4220 hc        1 MOL      0.078918
     72 H32        -5.7440   -4.0200   -2.3110 hn        1 MOL      0.307693
     73 H33        -4.2290   -4.3080   -1.5920 hn        1 MOL      0.307693
     74 N8         -5.8430   -1.4950    1.6840 n         1 MOL     -0.227694
     75 C23        -5.7550   -2.1190    2.9440 c3        1 MOL     -0.128074
     76 C24        -4.4140   -2.8060    3.2380 c         1 MOL      0.513434
     77 O12        -4.2930   -3.3680    4.3280 o         1 MOL     -0.561707
     78 H34        -5.2690   -0.6600    1.6930 hn        1 MOL      0.279011
     79 H35        -6.5480   -2.8720    2.9340 h1        1 MOL      0.093052
     80 H36        -5.9320   -1.4460    3.7860 h1        1 MOL      0.093052
     81 N9         -3.4650   -2.9210    2.2450 n         1 MOL     -0.256427
     82 C25        -2.1930   -3.6560    2.3900 c3        1 MOL     -0.054244
     83 C26        -1.0210   -2.9490    1.6460 c         1 MOL      0.496754
     84 O13        -1.1860   -2.4360    0.5830 o         1 MOL     -0.516268
     85 C27        -2.3560   -5.0950    1.9400 c3        1 MOL     -0.069362
     86 C28        -2.8480   -5.5020    0.5630 ca        1 MOL      0.121913
     87 C29        -4.1070   -6.1900    0.3890 ca        1 MOL     -0.213048
     88 C30        -2.0640   -5.2300   -0.6180 ca        1 MOL     -0.213048
     89 C31        -4.5140   -6.6700   -0.8710 ca        1 MOL     -0.244831
     90 C32        -2.4830   -5.7190   -1.8590 ca        1 MOL     -0.244831
     91 C33        -3.6820   -6.4110   -2.0000 ca        1 MOL      0.372273
     92 O14        -4.0810   -7.0720   -3.1250 oh        1 MOL     -0.564428
     93 H37        -3.6720   -2.4900    1.3520 hn        1 MOL      0.209855
     94 H38        -1.9060   -3.5910    3.4380 h1        1 MOL      0.089383
     95 H39        -3.0550   -5.5890    2.6210 hc        1 MOL      0.046836
     96 H40        -1.4290   -5.6580    2.0540 hc        1 MOL      0.046836
     97 H41        -4.7500   -6.2560    1.2560 ha        1 MOL      0.173088
     98 H42        -1.0920   -4.7700   -0.4870 ha        1 MOL      0.173088
     99 H43        -5.4840   -7.1260   -0.9880 ha        1 MOL      0.136004
    100 H44        -1.8700   -5.7370   -2.7490 ha        1 MOL      0.136004
    101 H45        -4.9830   -7.3760   -3.0280 ho        1 MOL      0.406568
    102 N10         0.1760   -3.0190    2.2160 n         1 MOL     -0.352158
    103 C34         1.4220   -2.4130    1.7180 c3        1 MOL      0.024561
    104 C35         2.5260   -3.3890    1.2850 c         1 MOL      0.556599
    105 O15         2.5080   -4.5470    1.7440 o         1 MOL     -0.565822
    106 C36         1.8900   -1.2900    2.6680 c3        1 MOL     -0.062815
    107 C37         2.4370   -1.8590    3.9590 c3        1 MOL     -0.151582
    108 C38         0.8120   -0.2180    2.8840 c3        1 MOL      0.029765
    109 C39         3.1860   -0.8650    4.7700 c3        1 MOL     -0.037390
    110 H46         0.2820   -3.3470    3.1710 hn        1 MOL      0.233790
    111 H47         1.1390   -1.8560    0.8240 h1        1 MOL      0.060461
    112 H48         2.6490   -0.7780    2.0780 hc        1 MOL     -0.011802
    113 H49         3.0870   -2.7070    3.7290 hc        1 MOL      0.071484
    114 H50         1.6180   -2.2030    4.5790 hc        1 MOL      0.071484
    115 H51         0.3330    0.0080    1.9320 hc        1 MOL      0.030111
    116 H52         0.0960   -0.5750    3.6300 hc        1 MOL      0.030111
    117 H53         1.2380    0.6450    3.3900 hc        1 MOL      0.030111
    118 H54         4.1380   -0.5200    4.3510 hc        1 MOL      0.015206
    119 H55         2.6060   -0.0280    5.1520 hc        1 MOL      0.015206
    120 H56         3.4880   -1.3870    5.6880 hc        1 MOL      0.015206
    121 N11         3.4270   -2.8770    0.4720 n         1 MOL     -0.275697
    122 C40         4.5560   -3.5750   -0.0690 c3        1 MOL      0.107473
    123 C41         5.9200   -2.9740    0.4240 c         1 MOL      0.326999
    124 O16         5.9640   -1.8420    0.9630 o         1 MOL     -0.355205
    125 C42         4.4400   -3.4900   -1.6020 c3        1 MOL     -0.157057
    126 O17         4.3820   -2.2130   -2.1560 oh        1 MOL     -0.471837
    127 H57         3.4290   -1.8800    0.3150 hn        1 MOL      0.155373
    128 H58         4.5600   -4.6130    0.2630 h1        1 MOL      0.067396
    129 H59         3.5670   -4.0650   -1.9020 h1        1 MOL      0.079126
    130 H60         5.3100   -3.9640   -2.0500 h1        1 MOL      0.079126
    131 H61         4.3960   -2.3610   -3.1070 ho        1 MOL      0.410390
    132 N12         7.0570   -3.6610    0.1530 n         1 MOL     -0.335457
    133 C43         8.3990   -3.0960    0.2060 c3        1 MOL      0.034421
    134 C44         8.3930   -1.6970   -0.5090 c         1 MOL      0.489626
    135 O18         8.8360   -0.6950    0.0500 o         1 MOL     -0.512497
    136 C45         9.4320   -4.0890   -0.4150 c3        1 MOL     -0.182532
    137 H62         6.9250   -4.5950   -0.2070 hn        1 MOL      0.260333
    138 H63         8.5460   -3.0040    1.2900 h1        1 MOL      0.095727
    139 H64         9.5050   -5.0730    0.0420 hc        1 MOL      0.064208
    140 H65         9.2290   -4.1740   -1.4810 hc        1 MOL      0.064208
    141 H66        10.3960   -3.5840   -0.3790 hc        1 MOL      0.064208
    142 N13         7.9720   -1.6080   -1.7890 n         1 MOL     -0.380161
    143 C46         8.0570   -0.3320   -2.5650 c3        1 MOL      0.117549
    144 C47         7.1200    0.7100   -1.9840 c         1 MOL      0.337979
    145 O19         7.4540    1.8550   -1.9530 o         1 MOL     -0.512054
    146 C48         7.8320   -0.5130   -4.0670 c3        1 MOL     -0.401967
    147 H67         7.5000   -2.3900   -2.2170 hn        1 MOL      0.262925
    148 H68         9.0890   -0.0210   -2.4190 h1        1 MOL      0.113884
    149 H69         8.6660   -1.0590   -4.4890 hc        1 MOL      0.114797
    150 H70         6.8790   -1.0210   -4.2300 hc        1 MOL      0.114797
    151 H71         7.6560    0.4990   -4.4260 hc        1 MOL      0.114797
    152 N14         5.9430    0.3510   -1.4040 n         1 MOL     -0.011312
    153 C49         5.0670    1.3270   -0.7500 c3        1 MOL     -0.146362
    154 C50         5.6900    1.7310    0.5550 c         1 MOL      0.491867
    155 O20         5.4550    2.8270    0.9490 o         1 MOL     -0.580053
    156 C51         3.6730    0.8950   -0.4660 c3        1 MOL      0.105488
    157 C52         2.9930    0.8190   -1.8250 c3        1 MOL     -0.050881
    158 C53         1.5890    0.2420   -1.7710 c         1 MOL      0.829711
    159 O21         0.9830   -0.2510   -2.7320 o         1 MOL     -0.822828
    160 O22         0.9210    0.2930   -0.6850 o         1 MOL     -0.822828
    161 H72         5.6520   -0.5990   -1.5490 hn        1 MOL      0.073558
    162 H73         4.9480    2.2310   -1.3340 h1        1 MOL      0.095378
    163 H74         3.2340    1.6690    0.1650 hc        1 MOL      0.051771
    164 H75         3.5320   -0.0360    0.0790 hc        1 MOL      0.051771
    165 H76         3.5800    0.2940   -2.5760 hc        1 MOL     -0.021989
    166 H77         2.8600    1.8590   -2.1520 hc        1 MOL     -0.021989
    167 N15         6.4280    0.8910    1.2770 n         1 MOL     -0.131686
    168 C54         7.2160    1.2810    2.4940 c3        1 MOL     -0.225900
    169 H78         7.4510    2.3450    2.4480 h1        1 MOL      0.092971
    170 H79         6.6270    1.0790    3.3880 h1        1 MOL      0.092971
    171 H80         8.1410    0.7060    2.5280 h1        1 MOL      0.092971
    172 H81         6.3610   -0.1040    1.1580 hn        1 MOL      0.132368
    173 Ca1        -1.5380   -0.7000   -1.4640 Ca        1 MOL      1.765949
    174 O23        -2.1990   -2.0840   -3.6580 oh        1 MOL     -0.794277
    175 H82        -1.9450   -2.9630   -3.9190 ho        1 MOL      0.390253
    176 H83        -2.2010   -1.5850   -4.4820 ho        1 MOL      0.390253
    177 O24         0.1620   -2.7750   -1.9870 oh        1 MOL     -0.794277
    178 H84         0.5250   -3.6680   -1.9960 ho        1 MOL      0.390253
    179 H85         0.5290   -2.3580   -2.7520 ho        1 MOL      0.390253
@<TRIPOS>BOND
     1    1    2 1   
     2    1    4 1   
     3    1    5 1   
     4    1    6 1   
     5    2    3 2   
     6    2    7 1   
     7    7    8 1   
     8    7   15 1   
     9    8    9 1   
    10    8   11 1   
    11    8   16 1   
    12    9   10 2   
    13    9   19 1   
    14   11   12 1   
    15   11   17 1   
    16   11   18 1   
    17   12   13 1   
    18   12   14 1   
    19   19   20 1   
    20   19   28 1   
    21   20   21 1   
    22   20   23 1   
    23   20   29 1   
    24   21   22 2   
    25   21   41 1   
    26   23   24 1   
    27   23   30 1   
    28   23   31 1   
    29   24   25 1   
    30   24   32 1   
    31   24   33 1   
    32   25   26 1   
    33   25   34 1   
    34   25   35 1   
    35   26   27 1   
    36   26   36 1   
    37   26   37 1   
    38   27   38 1   
    39   27   39 1   
    40   27   40 1   
    41   41   42 1   
    42   41   49 1   
    43   42   43 1   
    44   42   45 1   
    45   42   50 1   
    46   43   44 2   
    47   43   53 1   
    48   45   46 1   
    49   45   51 1   
    50   45   52 1   
    51   46   47 1   
    52   46   48 1   
    53   53   54 1   
    54   53   57 1   
    55   54   55 1   
    56   54   58 1   
    57   54   59 1   
    58   55   56 2   
    59   55   60 1   
    60   60   61 1   
    61   60   68 1   
    62   61   62 1   
    63   61   64 1   
    64   61   69 1   
    65   62   63 2   
    66   62   74 1   
    67   64   65 1   
    68   64   70 1   
    69   64   71 1   
    70   65   66 1   
    71   65   67 2   
    72   66   72 1   
    73   66   73 1   
    74   74   75 1   
    75   74   78 1   
    76   75   76 1   
    77   75   79 1   
    78   75   80 1   
    79   76   77 2   
    80   76   81 1   
    81   81   82 1   
    82   81   93 1   
    83   82   83 1   
    84   82   85 1   
    85   82   94 1   
    86   83   84 2   
    87   83  102 1   
    88   85   86 1   
    89   85   95 1   
    90   85   96 1   
    91   86   87 ar  
    92   86   88 ar  
    93   87   89 ar  
    94   87   97 1   
    95   88   90 ar  
    96   88   98 1   
    97   89   91 ar  
    98   89   99 1   
    99   90   91 ar  
   100   90  100 1   
   101   91   92 1   
   102   92  101 1   
   103  102  103 1   
   104  102  110 1   
   105  103  104 1   
   106  103  106 1   
   107  103  111 1   
   108  104  105 2   
   109  104  121 1   
   110  106  107 1   
   111  106  108 1   
   112  106  112 1   
   113  107  109 1   
   114  107  113 1   
   115  107  114 1   
   116  108  115 1   
   117  108  116 1   
   118  108  117 1   
   119  109  118 1   
   120  109  119 1   
   121  109  120 1   
   122  121  122 1   
   123  121  127 1   
   124  122  123 1   
   125  122  125 1   
   126  122  128 1   
   127  123  124 2   
   128  123  132 1   
   129  125  126 1   
   130  125  129 1   
   131  125  130 1   
   132  126  131 1   
   133  132  133 1   
   134  132  137 1   
   135  133  134 1   
   136  133  136 1   
   137  133  138 1   
   138  134  135 2   
   139  134  142 1   
   140  136  139 1   
   141  136  140 1   
   142  136  141 1   
   143  142  143 1   
   144  142  147 1   
   145  143  144 1   
   146  143  146 1   
   147  143  148 1   
   148  144  145 2   
   149  144  152 1   
   150  146  149 1   
   151  146  150 1   
   152  146  151 1   
   153  152  153 1   
   154  152  161 1   
   155  153  154 1   
   156  153  156 1   
   157  153  162 1   
   158  154  155 2   
   159  154  167 1   
   160  156  157 1   
   161  156  163 1   
   162  156  164 1   
   163  157  158 1   
   164  157  165 1   
   165  157  166 1   
   166  158  159 1   
   167  158  160 1   
   168  167  168 1   
   169  167  172 1   
   170  168  169 1   
   171  168  170 1   
   172  168  171 1   
   173  174  175 1   
   174  174  176 1   
   175  177  178 1   
   176  177  179 1   
@<TRIPOS>SUBSTRUCTURE
     1 MOL         1 TEMP              0 ****  ****    0 ROOT
