@<TRIPOS>MOLECULE
MOL
  178   175     1     0     0
SMALL
resp


@<TRIPOS>ATOM
      1 C1         -1.0700    3.7730    5.9960 c3        1 MOL     -0.336891
      2 C2         -1.1080    3.2910    4.5510 c         1 MOL      0.843720
      3 O1         -0.1420    3.3650    3.8320 o         1 MOL     -0.617671
      4 H1         -1.4730    2.9970    6.6480 hc        1 MOL      0.074850
      5 H2         -0.0400    3.9880    6.2810 hc        1 MOL      0.074850
      6 H3         -1.6720    4.6770    6.0940 hc        1 MOL      0.074850
      7 N1         -2.2010    2.6870    4.0880 n         1 MOL     -0.738678
      8 C3         -2.5190    2.3450    2.7270 c3        1 MOL      0.250178
      9 C4         -2.9020    3.6780    1.9950 c         1 MOL      0.594304
     10 O2         -3.6100    4.5890    2.5600 o         1 MOL     -0.623980
     11 C5         -3.6040    1.2250    2.6700 c3        1 MOL     -0.117264
     12 C6         -4.0500    0.9190    1.2600 c         1 MOL      0.781378
     13 O3         -5.0480    0.1820    1.1990 o         1 MOL     -0.669670
     14 O4         -3.1970    1.2130    0.3280 o         1 MOL     -0.669670
     15 H4         -2.9660    2.5180    4.7340 hn        1 MOL      0.327014
     16 H5         -1.5830    2.0490    2.2490 h1        1 MOL     -0.075754
     17 H6         -4.4630    1.6030    3.2240 hc        1 MOL     -0.000071
     18 H7         -3.1800    0.3350    3.1340 hc        1 MOL     -0.000071
     19 N2         -2.4550    3.8410    0.7620 n         1 MOL     -0.288467
     20 C7         -2.5130    5.0930   -0.0430 c3        1 MOL      0.145430
     21 C8         -3.2460    4.9950   -1.3030 c         1 MOL      0.553366
     22 O5         -3.6080    6.0150   -1.8500 o         1 MOL     -0.571476
     23 C9         -1.0660    5.5000   -0.2510 c3        1 MOL     -0.322666
     24 H8         -2.0930    3.0910    0.1830 hn        1 MOL      0.175644
     25 H9         -2.9990    5.7940    0.6340 h1        1 MOL      0.041775
     26 H10        -1.1670    6.5050   -0.6770 hc        1 MOL      0.090429
     27 H11        -0.4850    5.4640    0.6690 hc        1 MOL      0.090429
     28 H12        -0.7230    4.8250   -1.0320 hc        1 MOL      0.090429
     29 N3         -3.7000    3.7570   -1.6820 n         1 MOL     -0.472489
     30 C10        -4.7660    3.5960   -2.7940 c3        1 MOL      0.171700
     31 C11        -5.9720    2.8830   -2.2410 c         1 MOL      0.330282
     32 O6         -7.0230    2.8330   -2.8830 o         1 MOL     -0.532733
     33 C12        -4.1670    2.9210   -4.0810 c3        1 MOL     -0.339869
     34 C13        -3.7290    1.4920   -3.7690 c         1 MOL      0.878448
     35 O7         -3.3490    0.8690   -4.7720 o         1 MOL     -0.734988
     36 O8         -3.7530    0.9880   -2.6500 o         1 MOL     -0.734988
     37 H13        -3.2710    2.9350   -1.2940 hn        1 MOL      0.267725
     38 H14        -5.2540    4.5280   -3.0910 h1        1 MOL      0.089030
     39 H15        -3.2840    3.4940   -4.3690 hc        1 MOL      0.090467
     40 H16        -4.8660    3.0420   -4.9100 hc        1 MOL      0.090467
     41 N4         -5.9750    2.4260   -0.9550 n         1 MOL      0.003776
     42 C14        -7.1200    1.9090   -0.2230 c3        1 MOL     -0.377400
     43 C15        -7.5570    0.4880   -0.5670 c         1 MOL      0.572389
     44 O9         -8.7220    0.0560   -0.2970 o         1 MOL     -0.587609
     45 H17        -5.0860    2.6060   -0.5110 hn        1 MOL      0.006099
     46 H18        -7.9940    2.5550   -0.3810 h1        1 MOL      0.146166
     47 H19        -6.7860    1.9580    0.8110 h1        1 MOL      0.146166
     48 N5         -6.6870   -0.2970   -1.2310 n         1 MOL     -0.288100
     49 C16        -6.9570   -1.6750   -1.5040 c3        1 MOL     -0.069937
     50 C17        -6.9750   -2.6850   -0.2640 c         1 MOL      0.397307
     51 O10        -7.3470   -3.8490   -0.4500 o         1 MOL     -0.553279
     52 C18        -5.9010   -2.0750   -2.5070 c3        1 MOL     -0.010263
     53 C19        -4.6540   -2.6900   -1.7530 c         1 MOL      0.164530
     54 N6         -4.3620   -4.0000   -1.8500 n         1 MOL     -0.504434
     55 O11        -3.8860   -1.9710   -1.1540 o         1 MOL     -0.523823
     56 H20        -5.7800    0.1230   -1.3860 hn        1 MOL      0.273194
     57 H21        -7.8960   -1.7500   -2.0470 h1        1 MOL      0.112317
     58 H22        -5.5550   -1.2030   -3.0670 hc        1 MOL      0.061143
     59 H23        -6.3440   -2.7410   -3.2480 hc        1 MOL      0.061143
     60 H24        -4.8270   -4.4850   -2.6170 hn        1 MOL      0.300532
     61 H25        -3.5330   -4.3610   -1.4150 hn        1 MOL      0.300532
     62 N7         -6.4590   -2.2860    0.8680 n         1 MOL     -0.021689
     63 C20        -6.3960   -2.9450    2.1650 c3        1 MOL     -0.242233
     64 C21        -5.0270   -3.6350    2.5030 c         1 MOL      0.652755
     65 O12        -4.9680   -4.3590    3.4110 o         1 MOL     -0.598475
     66 H26        -6.0490   -1.3610    0.8730 hn        1 MOL      0.173585
     67 H27        -7.1710   -3.7030    2.1130 h1        1 MOL      0.102950
     68 H28        -6.5920   -2.2230    2.9610 h1        1 MOL      0.102950
     69 N8         -3.9820   -3.5000    1.7220 n         1 MOL     -0.279640
     70 C22        -2.5870   -3.9360    2.0030 c3        1 MOL     -0.089603
     71 C23        -1.6730   -2.7310    1.6450 c         1 MOL      0.471502
     72 O13        -1.8980   -1.8890    0.8080 o         1 MOL     -0.385228
     73 C24        -2.2740   -5.1770    1.2230 c3        1 MOL      0.325481
     74 C25        -3.2940   -6.2700    1.3180 c3        1 MOL     -0.207735
     75 O14        -1.9850   -4.9180   -0.1430 oh        1 MOL     -0.574363
     76 H29        -4.0770   -2.9170    0.9080 hn        1 MOL      0.176810
     77 H30        -2.5240   -4.2150    3.0580 h1        1 MOL      0.107905
     78 H31        -1.4410   -5.6790    1.7150 h1        1 MOL      0.003693
     79 H32        -1.9100   -5.7880   -0.5490 ho        1 MOL      0.381117
     80 H33        -4.2100   -6.0900    0.7510 hc        1 MOL      0.054805
     81 H34        -2.9480   -7.2530    0.9870 hc        1 MOL      0.054805
     82 H35        -3.5620   -6.3730    2.3680 hc        1 MOL      0.054805
     83 N9         -0.5400   -2.7450    2.3300 n         1 MOL     -0.355114
     84 C26         0.6130   -1.9610    1.9780 c3        1 MOL      0.049493
     85 C27         1.6560   -2.6920    1.0820 c         1 MOL      0.500086
     86 O15         2.1090   -3.8170    1.3620 o         1 MOL     -0.584212
     87 C28         1.2020   -1.2030    3.2200 c3        1 MOL     -0.031451
     88 C29         1.5090   -2.1820    4.3490 c3        1 MOL      0.094982
     89 C30         0.1650   -0.1470    3.6060 c3        1 MOL     -0.204691
     90 C31         2.4270   -1.6310    5.4290 c3        1 MOL     -0.125979
     91 H36        -0.4210   -3.5590    2.9230 hn        1 MOL      0.217417
     92 H37         0.2630   -1.1710    1.3180 h1        1 MOL     -0.149098
     93 H38         2.0860   -0.5930    3.0520 hc        1 MOL     -0.016752
     94 H39         2.0020   -3.0540    3.9080 hc        1 MOL     -0.002819
     95 H40         0.6590   -2.6310    4.8580 hc        1 MOL     -0.002819
     96 H41        -0.2760    0.3250    2.7300 hc        1 MOL      0.079180
     97 H42        -0.6860   -0.5650    4.1530 hc        1 MOL      0.079180
     98 H43         0.6260    0.6200    4.2250 hc        1 MOL      0.079180
     99 H44         1.9020   -0.7860    5.8840 hc        1 MOL      0.019979
    100 H45         2.5420   -2.3750    6.2150 hc        1 MOL      0.019979
    101 H46         3.4120   -1.4200    5.0060 hc        1 MOL      0.019979
    102 N10         2.0280   -1.9530    0.0460 n         1 MOL     -0.310556
    103 C32         3.1590   -2.1800   -0.8890 c3        1 MOL      0.148707
    104 C33         4.5570   -1.6280   -0.3350 c         1 MOL      0.491507
    105 O16         4.5980   -0.8620    0.5920 o         1 MOL     -0.429052
    106 C34         2.8250   -1.6560   -2.2810 c3        1 MOL     -0.237495
    107 C35         3.7240   -2.3620   -3.3380 c         1 MOL      0.670588
    108 O17         4.2900   -3.4360   -2.9910 o         1 MOL     -0.694689
    109 O18         3.9820   -1.7510   -4.4430 o         1 MOL     -0.694689
    110 H47         1.5100   -1.1010   -0.0520 hn        1 MOL      0.262333
    111 H48         3.2740   -3.2510   -1.0020 h1        1 MOL      0.033930
    112 H49         2.9170   -0.5750   -2.3320 hc        1 MOL      0.034723
    113 H50         1.8120   -1.9190   -2.5870 hc        1 MOL      0.034723
    114 N11         5.6460   -2.0450   -0.9940 n         1 MOL     -0.649238
    115 C36         6.9430   -1.4960   -0.5950 c3        1 MOL      0.389186
    116 C37         7.0290    0.0670   -0.4650 c         1 MOL      0.384366
    117 O19         7.5380    0.5630    0.4860 o         1 MOL     -0.524195
    118 C38         8.0730   -2.0750   -1.4990 c3        1 MOL     -0.303551
    119 C39         9.4400   -1.4990   -1.1500 ca        1 MOL      0.313192
    120 C40        10.0270   -1.7940    0.1040 ca        1 MOL     -0.335208
    121 C41        10.1820   -0.8420   -2.1690 ca        1 MOL     -0.335208
    122 C42        11.2770   -1.2070    0.4050 ca        1 MOL      0.023759
    123 C43        11.3960   -0.2710   -1.8550 ca        1 MOL      0.023759
    124 C44        11.9780   -0.4900   -0.5900 ca        1 MOL     -0.239716
    125 H51         5.5360   -2.6270   -1.8110 hn        1 MOL      0.361598
    126 H52         7.1680   -1.7450    0.4460 h1        1 MOL      0.015671
    127 H53         7.8620   -1.9440   -2.5650 hc        1 MOL      0.085711
    128 H54         8.1750   -3.1540   -1.3470 hc        1 MOL      0.085711
    129 H55         9.4680   -2.3560    0.8340 ha        1 MOL      0.150864
    130 H56         9.6770   -0.5980   -3.0930 ha        1 MOL      0.150864
    131 H57        11.7630   -1.3350    1.3620 ha        1 MOL      0.079399
    132 H58        12.0150    0.2020   -2.6030 ha        1 MOL      0.079399
    133 H59        13.0360   -0.3650   -0.3750 ha        1 MOL      0.108197
    134 N12         6.5630    0.9100   -1.4030 n         1 MOL     -0.237609
    135 C45         6.4590    2.3970   -1.1910 c3        1 MOL      0.120159
    136 C46         5.5930    2.8770   -0.0190 c         1 MOL      0.254959
    137 O20         5.8080    4.0020    0.4330 o         1 MOL     -0.502366
    138 C47         5.9170    2.9150   -2.4970 c3        1 MOL     -0.263492
    139 C48         5.2270    1.7560   -3.1770 c3        1 MOL      0.078207
    140 C49         6.0610    0.5530   -2.7370 c3        1 MOL     -0.002300
    141 H60         7.4790    2.7420   -1.0030 h1        1 MOL      0.070715
    142 H61         5.1890    3.7130   -2.3610 hc        1 MOL      0.080201
    143 H62         6.7630    3.2350   -3.1100 hc        1 MOL      0.080201
    144 H63         4.2530    1.6140   -2.7020 hc        1 MOL      0.005419
    145 H64         5.1060    1.7860   -4.2580 hc        1 MOL      0.005419
    146 H65         5.4250   -0.3230   -2.7710 h1        1 MOL      0.042077
    147 H66         6.8960    0.4050   -3.4240 h1        1 MOL      0.042077
    148 N13         4.5270    2.1630    0.4020 n         1 MOL     -0.034312
    149 C50         3.5700    2.5140    1.4250 c3        1 MOL     -0.256672
    150 C51         4.1560    2.1720    2.8190 c         1 MOL      0.489398
    151 O21         3.9760    2.8650    3.8460 o         1 MOL     -0.565899
    152 C52         2.2990    1.7610    1.0160 c3        1 MOL      0.300076
    153 C53         1.6160    2.3350   -0.2860 c3        1 MOL     -0.349777
    154 C54         0.4150    1.4940   -0.7310 c         1 MOL      0.849567
    155 O22        -0.5510    2.0700   -1.2450 o         1 MOL     -0.698423
    156 O23         0.3410    0.2690   -0.4670 o         1 MOL     -0.698423
    157 H67         4.2760    1.3640   -0.1610 hn        1 MOL      0.299012
    158 H68         3.3510    3.5890    1.4280 h1        1 MOL      0.118226
    159 H69         1.5230    1.8070    1.7840 hc        1 MOL      0.034467
    160 H70         2.5790    0.7190    0.8560 hc        1 MOL      0.034467
    161 H71         2.3280    2.3050   -1.1070 hc        1 MOL      0.034658
    162 H72         1.2160    3.3200   -0.0730 hc        1 MOL      0.034658
    163 N14         4.9810    1.1150    2.8360 n         1 MOL     -0.083201
    164 C55         5.8620    0.6610    3.9520 c3        1 MOL     -0.240575
    165 H73         5.2810    0.0590    4.6500 h1        1 MOL      0.094242
    166 H74         6.6800    0.0630    3.5500 h1        1 MOL      0.094242
    167 H75         6.2660    1.5290    4.4720 h1        1 MOL      0.094242
    168 H76         5.0100    0.5590    2.0040 hn        1 MOL      0.080524
    169 Ca1        -1.9880   -0.2740   -1.3630 Ca        1 MOL      1.576899
    170 O24        -2.6450   -1.6140   -3.7880 oh        1 MOL     -0.769857
    171 H77        -2.9430   -2.4690   -4.1110 ho        1 MOL      0.382231
    172 H78        -2.9870   -0.9890   -4.4260 ho        1 MOL      0.382231
    173 O25        -0.7590   -2.7310   -1.7420 oh        1 MOL     -0.769857
    174 H79        -1.0030   -3.5680   -1.3510 ho        1 MOL      0.382231
    175 H80        -0.2660   -2.9660   -2.5300 ho        1 MOL      0.382231
    176 O26        -0.4150    0.1230   -3.4540 oh        1 MOL     -0.769857
    177 H81         0.2520    0.7610   -3.6950 ho        1 MOL      0.382231
    178 H82        -0.3960   -0.5240   -4.1700 ho        1 MOL      0.382231
@<TRIPOS>BOND
     1    1    2 1   
     2    1    4 1   
     3    1    5 1   
     4    1    6 1   
     5    2    3 2   
     6    2    7 1   
     7    7    8 1   
     8    7   15 1   
     9    8    9 1   
    10    8   11 1   
    11    8   16 1   
    12    9   10 2   
    13    9   19 1   
    14   11   12 1   
    15   11   17 1   
    16   11   18 1   
    17   12   13 1   
    18   12   14 1   
    19   19   20 1   
    20   19   24 1   
    21   20   21 1   
    22   20   23 1   
    23   20   25 1   
    24   21   22 2   
    25   21   29 1   
    26   23   26 1   
    27   23   27 1   
    28   23   28 1   
    29   29   30 1   
    30   29   37 1   
    31   30   31 1   
    32   30   33 1   
    33   30   38 1   
    34   31   32 2   
    35   31   41 1   
    36   33   34 1   
    37   33   39 1   
    38   33   40 1   
    39   34   35 1   
    40   34   36 1   
    41   41   42 1   
    42   41   45 1   
    43   42   43 1   
    44   42   46 1   
    45   42   47 1   
    46   43   44 2   
    47   43   48 1   
    48   48   49 1   
    49   48   56 1   
    50   49   50 1   
    51   49   52 1   
    52   49   57 1   
    53   50   51 2   
    54   50   62 1   
    55   52   53 1   
    56   52   58 1   
    57   52   59 1   
    58   53   54 1   
    59   53   55 2   
    60   54   60 1   
    61   54   61 1   
    62   62   63 1   
    63   62   66 1   
    64   63   64 1   
    65   63   67 1   
    66   63   68 1   
    67   64   65 2   
    68   64   69 1   
    69   69   70 1   
    70   69   76 1   
    71   70   71 1   
    72   70   73 1   
    73   70   77 1   
    74   71   72 2   
    75   71   83 1   
    76   73   74 1   
    77   73   75 1   
    78   73   78 1   
    79   74   80 1   
    80   74   81 1   
    81   74   82 1   
    82   75   79 1   
    83   83   84 1   
    84   83   91 1   
    85   84   85 1   
    86   84   87 1   
    87   84   92 1   
    88   85   86 2   
    89   85  102 1   
    90   87   88 1   
    91   87   89 1   
    92   87   93 1   
    93   88   90 1   
    94   88   94 1   
    95   88   95 1   
    96   89   96 1   
    97   89   97 1   
    98   89   98 1   
    99   90   99 1   
   100   90  100 1   
   101   90  101 1   
   102  102  103 1   
   103  102  110 1   
   104  103  104 1   
   105  103  106 1   
   106  103  111 1   
   107  104  105 2   
   108  104  114 1   
   109  106  107 1   
   110  106  112 1   
   111  106  113 1   
   112  107  108 1   
   113  107  109 1   
   114  114  115 1   
   115  114  125 1   
   116  115  116 1   
   117  115  118 1   
   118  115  126 1   
   119  116  117 2   
   120  116  134 1   
   121  118  119 1   
   122  118  127 1   
   123  118  128 1   
   124  119  120 ar  
   125  119  121 ar  
   126  120  122 ar  
   127  120  129 1   
   128  121  123 ar  
   129  121  130 1   
   130  122  124 ar  
   131  122  131 1   
   132  123  124 ar  
   133  123  132 1   
   134  124  133 1   
   135  134  135 1   
   136  134  140 1   
   137  135  136 1   
   138  135  138 1   
   139  135  141 1   
   140  136  137 2   
   141  136  148 1   
   142  138  139 1   
   143  138  142 1   
   144  138  143 1   
   145  139  140 1   
   146  139  144 1   
   147  139  145 1   
   148  140  146 1   
   149  140  147 1   
   150  148  149 1   
   151  148  157 1   
   152  149  150 1   
   153  149  152 1   
   154  149  158 1   
   155  150  151 2   
   156  150  163 1   
   157  152  153 1   
   158  152  159 1   
   159  152  160 1   
   160  153  154 1   
   161  153  161 1   
   162  153  162 1   
   163  154  155 1   
   164  154  156 1   
   165  163  164 1   
   166  163  168 1   
   167  164  165 1   
   168  164  166 1   
   169  164  167 1   
   170  170  171 1   
   171  170  172 1   
   172  173  174 1   
   173  173  175 1   
   174  176  177 1   
   175  176  178 1   
@<TRIPOS>SUBSTRUCTURE
     1 MOL         1 TEMP              0 ****  ****    0 ROOT
