@<TRIPOS>MOLECULE
MOL
  183   181     1     0     0
SMALL
resp


@<TRIPOS>ATOM
      1 C1          0.0530    1.1520    6.3280 c3        1 MOL     -0.266485
      2 C2         -0.4490    1.2540    4.8220 c         1 MOL      0.732912
      3 O1          0.2400    1.8090    3.9700 o         1 MOL     -0.577128
      4 H1          0.9280    0.5050    6.3760 hc        1 MOL      0.059636
      5 H2          0.3150    2.1460    6.6930 hc        1 MOL      0.059636
      6 H3         -0.7410    0.7350    6.9490 hc        1 MOL      0.059636
      7 N1         -1.6800    0.8560    4.5030 n         1 MOL     -0.703023
      8 C3         -2.2700    0.9620    3.1470 c3        1 MOL      0.208290
      9 C4         -2.6810    2.3980    2.8680 c         1 MOL      0.561502
     10 O2         -3.4400    3.0050    3.6150 o         1 MOL     -0.584522
     11 C5         -3.4800    0.0640    2.9870 c3        1 MOL     -0.237544
     12 C6         -4.3010    0.3940    1.6800 c         1 MOL      0.643472
     13 O3         -5.5640    0.1200    1.7090 o         1 MOL     -0.611105
     14 O4         -3.7980    0.8610    0.5900 o         1 MOL     -0.611105
     15 H4         -2.2650    0.6670    5.3020 hn        1 MOL      0.346903
     16 H5         -1.5430    0.7650    2.3540 h1        1 MOL      0.046622
     17 H6         -4.0920    0.1680    3.8830 hc        1 MOL      0.060267
     18 H7         -3.2430   -0.9980    2.9820 hc        1 MOL      0.060267
     19 N2         -2.2650    2.9320    1.7070 n         1 MOL     -0.260041
     20 C7         -2.5640    4.2330    1.2660 c3        1 MOL     -0.009563
     21 C8         -3.9370    4.4770    0.6000 c         1 MOL      0.411990
     22 O5         -4.6580    5.4530    0.8040 o         1 MOL     -0.568792
     23 C9         -1.4290    4.7270    0.3220 c3        1 MOL      0.280453
     24 C10        -0.0590    4.7340    1.1050 c3        1 MOL      0.246376
     25 C11        -1.6850    6.1190   -0.3400 c3        1 MOL     -0.504459
     26 C12         1.0920    5.4300    0.3800 c3        1 MOL     -0.221080
     27 H8         -1.7220    2.3070    1.1320 hn        1 MOL      0.125089
     28 H9         -2.4950    4.8760    2.1410 h1        1 MOL      0.018294
     29 H10        -1.2890    3.9690   -0.4550 hc        1 MOL      0.035083
     30 H11         0.1700    3.7260    1.4430 hc        1 MOL     -0.075433
     31 H12        -0.1800    5.3030    2.0270 hc        1 MOL     -0.075433
     32 H13        -1.0560    6.1360   -1.2190 hc        1 MOL      0.116451
     33 H14        -2.7040    6.1580   -0.7210 hc        1 MOL      0.116451
     34 H15        -1.5760    6.8970    0.4210 hc        1 MOL      0.116451
     35 H16         0.8400    6.4930    0.3680 hc        1 MOL      0.032235
     36 H17         2.0010    5.1510    0.9060 hc        1 MOL      0.032235
     37 H18         1.2380    4.9920   -0.6090 hc        1 MOL      0.032235
     38 N3         -4.4070    3.4810   -0.1570 n         1 MOL     -0.086493
     39 C13        -5.4010    3.5840   -1.2640 c3        1 MOL     -0.155531
     40 C14        -6.7700    3.1960   -0.7020 c         1 MOL      0.494156
     41 O6         -7.7780    3.8510   -1.0410 o         1 MOL     -0.597748
     42 C15        -5.0970    2.5650   -2.3610 c3        1 MOL      0.044985
     43 C16        -3.6730    2.6370   -2.9380 c         1 MOL      0.643156
     44 O7         -3.4310    3.4300   -3.8600 o         1 MOL     -0.684892
     45 O8         -2.7970    1.8850   -2.4490 o         1 MOL     -0.684892
     46 H19        -3.9270    2.5940   -0.1640 hn        1 MOL      0.083030
     47 H20        -5.3580    4.6000   -1.6520 h1        1 MOL      0.105819
     48 H21        -5.7700    2.7410   -3.2000 hc        1 MOL     -0.008698
     49 H22        -5.4090    1.5470   -2.1180 hc        1 MOL     -0.008698
     50 N4         -6.7660    2.2760    0.2020 n         1 MOL     -0.179283
     51 C17        -8.0160    1.7390    0.7680 c3        1 MOL     -0.018267
     52 C18        -8.3560    0.4420   -0.0050 c         1 MOL      0.397459
     53 O9         -9.5140    0.2230   -0.3530 o         1 MOL     -0.597769
     54 H23        -5.8550    1.9380    0.4910 hn        1 MOL      0.172295
     55 H24        -8.7850    2.5020    0.6270 h1        1 MOL      0.068716
     56 H25        -7.9890    1.6990    1.8540 h1        1 MOL      0.068716
     57 N5         -7.4290   -0.3790   -0.5190 n         1 MOL      0.059142
     58 C19        -7.5970   -1.6750   -1.2290 c3        1 MOL     -0.050534
     59 C20        -7.2980   -2.8490   -0.3710 c         1 MOL      0.352025
     60 O10        -7.5190   -4.0080   -0.8160 o         1 MOL     -0.527406
     61 C21        -6.7130   -1.7490   -2.4250 c3        1 MOL     -0.140996
     62 C22        -5.2540   -1.3960   -2.1420 c         1 MOL      0.693749
     63 O11        -4.4730   -0.9120   -3.0000 o         1 MOL     -0.768357
     64 O12        -4.7640   -1.4730   -1.0300 o         1 MOL     -0.768357
     65 H26        -6.5130   -0.2080   -0.1180 hn        1 MOL     -0.156050
     66 H27        -8.6010   -1.6770   -1.6360 h1        1 MOL      0.118576
     67 H28        -7.1120   -1.0400   -3.1580 hc        1 MOL      0.057618
     68 H29        -6.7980   -2.7440   -2.8540 hc        1 MOL      0.057618
     69 N6         -6.8310   -2.6500    0.8810 n         1 MOL     -0.162200
     70 C23        -6.6400   -3.7160    1.8360 c3        1 MOL     -0.161680
     71 C24        -5.3480   -4.4540    1.7480 c         1 MOL      0.574657
     72 O13        -5.1950   -5.5560    2.2530 o         1 MOL     -0.592352
     73 H30        -6.5830   -1.6890    1.0930 hn        1 MOL      0.226518
     74 H31        -7.4150   -4.4820    1.8980 h1        1 MOL      0.077019
     75 H32        -6.5710   -3.2330    2.8040 h1        1 MOL      0.077019
     76 N7         -4.4230   -3.8920    0.9570 n         1 MOL     -0.250255
     77 C25        -2.9650   -4.3390    0.8550 c3        1 MOL     -0.122442
     78 C26        -1.8820   -3.2240    0.8820 c         1 MOL      0.746395
     79 O14        -2.2620   -2.0700    0.8490 o         1 MOL     -0.641242
     80 C27        -2.8410   -5.2310   -0.4130 c3        1 MOL      0.023771
     81 C28        -3.3230   -4.7830   -1.8500 c3        1 MOL     -0.118453
     82 C29        -2.3880   -3.8340   -2.5870 c         1 MOL      0.644687
     83 N8         -2.0280   -4.1720   -3.7620 n         1 MOL     -0.759672
     84 O15        -1.9050   -2.9140   -1.9500 o         1 MOL     -0.525293
     85 H33        -4.6690   -3.0570    0.4500 hn        1 MOL      0.248429
     86 H34        -2.8220   -4.8980    1.7770 h1        1 MOL      0.068500
     87 H35        -3.4210   -6.1130   -0.1560 hc        1 MOL      0.010042
     88 H36        -1.8460   -5.6650   -0.5400 hc        1 MOL      0.010042
     89 H37        -4.3040   -4.3200   -1.7700 hc        1 MOL      0.031199
     90 H38        -3.3560   -5.6670   -2.4780 hc        1 MOL      0.031199
     91 H39        -2.4860   -4.9260   -4.2430 hn        1 MOL      0.364832
     92 H40        -1.3120   -3.6330   -4.2440 hn        1 MOL      0.364832
     93 N9         -0.6320   -3.5760    1.0690 n         1 MOL     -0.522056
     94 C30         0.5220   -2.7840    1.3770 c3        1 MOL      0.139412
     95 C31         1.6130   -3.2860    0.4340 c         1 MOL      0.282607
     96 O16         1.7100   -4.5300    0.1470 o         1 MOL     -0.532604
     97 C32         1.0360   -2.9350    2.8000 c3        1 MOL      0.161529
     98 C33         2.3990   -2.1910    3.0340 c3        1 MOL     -0.299276
     99 C34         0.1050   -2.5210    3.9690 c3        1 MOL     -0.299276
    100 H41        -0.3300   -4.5360    0.9250 hn        1 MOL      0.257854
    101 H42         0.3180   -1.7330    1.1790 h1        1 MOL      0.138771
    102 H43         1.2350   -4.0010    2.8820 hc        1 MOL     -0.005442
    103 H44         2.8590   -2.4870    3.9810 hc        1 MOL      0.062828
    104 H45         3.1620   -2.5700    2.3610 hc        1 MOL      0.062828
    105 H46         2.3430   -1.1110    2.9750 hc        1 MOL      0.062828
    106 H47        -0.3490   -1.5350    3.8230 hc        1 MOL      0.062828
    107 H48        -0.8020   -3.1110    3.8960 hc        1 MOL      0.062828
    108 H49         0.6590   -2.7200    4.8890 hc        1 MOL      0.062828
    109 N10         2.3570   -2.3340   -0.2050 n         1 MOL     -0.003882
    110 C35         3.5780   -2.5860   -0.9820 c3        1 MOL      0.060724
    111 C36         4.7550   -1.9380   -0.2270 c         1 MOL      0.331856
    112 O17         4.5880   -1.2910    0.8110 o         1 MOL     -0.292463
    113 C37         3.4940   -1.8560   -2.3880 c3        1 MOL     -0.365185
    114 C38         2.3560   -2.4220   -3.1930 c         1 MOL      0.728645
    115 N11         1.1520   -2.2160   -2.7430 n         1 MOL     -0.758512
    116 O18         2.5140   -2.9540   -4.2320 o         1 MOL     -0.621481
    117 H50         2.2180   -1.3480   -0.0560 hn        1 MOL      0.125536
    118 H51         3.7330   -3.6570   -1.1360 h1        1 MOL      0.065185
    119 H52         4.4220   -2.0510   -2.9330 hc        1 MOL      0.104284
    120 H53         3.3310   -0.7870   -2.3280 hc        1 MOL      0.104284
    121 H54         1.0250   -1.5930   -1.9570 hn        1 MOL      0.332819
    122 H55         0.3610   -2.5350   -3.2830 hn        1 MOL      0.332819
    123 N12         5.9740   -2.0900   -0.7240 n         1 MOL     -0.521605
    124 C39         7.1760   -1.5340   -0.2020 c3        1 MOL      0.146263
    125 C40         7.0680   -0.0380   -0.1090 c         1 MOL      0.704353
    126 O19         7.2630    0.4900    0.9510 o         1 MOL     -0.570656
    127 C41         8.2820   -1.9950   -1.0850 c3        1 MOL     -0.053297
    128 C42         9.6800   -1.7210   -0.4750 ca        1 MOL     -0.033262
    129 C43        10.2280   -2.7760    0.2660 ca        1 MOL     -0.188218
    130 C44        10.3490   -0.5150   -0.7310 ca        1 MOL     -0.188218
    131 C45        11.4040   -2.5150    0.9110 ca        1 MOL     -0.157607
    132 C46        11.5650   -0.2540   -0.1220 ca        1 MOL     -0.157607
    133 C47        12.0950   -1.2760    0.7020 ca        1 MOL      0.279532
    134 O20        13.2330   -1.1040    1.3120 oh        1 MOL     -0.539132
    135 H56         6.1230   -2.5990   -1.5920 hn        1 MOL      0.311832
    136 H57         7.3120   -1.8820    0.8210 h1        1 MOL      0.057082
    137 H58         8.0900   -1.4960   -2.0370 hc        1 MOL      0.019900
    138 H59         8.1140   -3.0310   -1.3700 hc        1 MOL      0.019900
    139 H60         9.7900   -3.7550    0.1730 ha        1 MOL      0.144107
    140 H61         9.8390    0.2320   -1.3170 ha        1 MOL      0.144107
    141 H62        11.9570   -3.2740    1.4400 ha        1 MOL      0.110675
    142 H63        12.1080    0.6530   -0.3570 ha        1 MOL      0.110675
    143 H64        13.7190   -0.2790    1.2390 ho        1 MOL      0.414036
    144 N13         6.6080    0.6060   -1.1900 n         1 MOL     -0.554331
    145 C48         6.3180    2.0450   -1.2770 c3        1 MOL      0.043197
    146 C49         5.3810    2.5870   -0.2300 c         1 MOL      0.485223
    147 O21         5.5800    3.6200    0.2900 o         1 MOL     -0.544210
    148 C50         5.7930    2.1300   -2.6730 c3        1 MOL      0.105350
    149 C51         5.7940    3.5690   -3.2580 c3        1 MOL     -0.403434
    150 C52         4.6570    3.8130   -4.2870 c         1 MOL      0.858148
    151 O22         4.2050    4.9220   -4.4320 o         1 MOL     -0.755595
    152 O23         4.3510    2.9660   -5.1380 o         1 MOL     -0.755595
    153 H65         6.3990    0.0210   -1.9870 hn        1 MOL      0.285215
    154 H66         7.2180    2.6610   -1.2620 h1        1 MOL      0.055275
    155 H67         4.7530    1.8030   -2.7230 hc        1 MOL     -0.034089
    156 H68         6.2450    1.4100   -3.3500 hc        1 MOL     -0.034089
    157 H69         6.7410    3.7770   -3.7610 hc        1 MOL      0.069376
    158 H70         5.6170    4.2260   -2.4080 hc        1 MOL      0.069376
    159 N14         4.4190    1.8050    0.1880 n         1 MOL     -0.068666
    160 C53         3.4770    2.1270    1.2330 c3        1 MOL     -0.317638
    161 C54         4.1460    1.8310    2.5870 c         1 MOL      0.457829
    162 O24         3.7900    2.3960    3.5860 o         1 MOL     -0.555999
    163 C55         2.1700    1.3740    1.0080 c3        1 MOL      0.125805
    164 C56         1.4800    1.5640   -0.4070 c3        1 MOL     -0.165419
    165 C57         0.2540    0.7920   -0.5190 c         1 MOL      0.846193
    166 O25        -0.8200    1.3770   -0.2820 o         1 MOL     -0.834785
    167 O26         0.1980   -0.4170   -0.7590 o         1 MOL     -0.834785
    168 H71         4.3690    0.8830   -0.2340 hn        1 MOL      0.166604
    169 H72         3.2950    3.1960    1.1900 h1        1 MOL      0.198543
    170 H73         1.4480    1.6450    1.7730 hc        1 MOL      0.059707
    171 H74         2.3670    0.3070    1.1040 hc        1 MOL      0.059707
    172 H75         2.1620    1.2730   -1.2150 hc        1 MOL      0.038143
    173 H76         1.2790    2.6230   -0.5470 hc        1 MOL      0.038143
    174 N15         5.1040    0.9140    2.6940 n         1 MOL      0.059196
    175 C58         5.7570    0.4980    3.9150 c3        1 MOL     -0.262432
    176 H77         6.6040   -0.1440    3.6730 h1        1 MOL      0.088418
    177 H78         6.1090    1.3750    4.4570 h1        1 MOL      0.088418
    178 H79         5.0510   -0.0530    4.5360 h1        1 MOL      0.088418
    179 H80         5.2310    0.4260    1.8160 hn        1 MOL     -0.076842
    180 Ca1        -2.5120   -0.4100   -1.3580 Ca        1 MOL      1.816619
    181 O27        -1.4050   -0.5400   -3.8650 oh        1 MOL     -0.864477
    182 H81        -1.5790    0.3320   -4.2320 ho        1 MOL      0.409047
    183 H82        -0.7900   -0.9420   -4.4910 ho        1 MOL      0.409047
@<TRIPOS>BOND
     1    1    2 1   
     2    1    4 1   
     3    1    5 1   
     4    1    6 1   
     5    2    3 2   
     6    2    7 1   
     7    7    8 1   
     8    7   15 1   
     9    8    9 1   
    10    8   11 1   
    11    8   16 1   
    12    9   10 2   
    13    9   19 1   
    14   11   12 1   
    15   11   17 1   
    16   11   18 1   
    17   12   13 1   
    18   12   14 1   
    19   19   20 1   
    20   19   27 1   
    21   20   21 1   
    22   20   23 1   
    23   20   28 1   
    24   21   22 2   
    25   21   38 1   
    26   23   24 1   
    27   23   25 1   
    28   23   29 1   
    29   24   26 1   
    30   24   30 1   
    31   24   31 1   
    32   25   32 1   
    33   25   33 1   
    34   25   34 1   
    35   26   35 1   
    36   26   36 1   
    37   26   37 1   
    38   38   39 1   
    39   38   46 1   
    40   39   40 1   
    41   39   42 1   
    42   39   47 1   
    43   40   41 2   
    44   40   50 1   
    45   42   43 1   
    46   42   48 1   
    47   42   49 1   
    48   43   44 1   
    49   43   45 1   
    50   50   51 1   
    51   50   54 1   
    52   51   52 1   
    53   51   55 1   
    54   51   56 1   
    55   52   53 2   
    56   52   57 1   
    57   57   58 1   
    58   57   65 1   
    59   58   59 1   
    60   58   61 1   
    61   58   66 1   
    62   59   60 2   
    63   59   69 1   
    64   61   62 1   
    65   61   67 1   
    66   61   68 1   
    67   62   63 1   
    68   62   64 1   
    69   69   70 1   
    70   69   73 1   
    71   70   71 1   
    72   70   74 1   
    73   70   75 1   
    74   71   72 2   
    75   71   76 1   
    76   76   77 1   
    77   76   85 1   
    78   77   78 1   
    79   77   80 1   
    80   77   86 1   
    81   78   79 2   
    82   78   93 1   
    83   80   81 1   
    84   80   87 1   
    85   80   88 1   
    86   81   82 1   
    87   81   89 1   
    88   81   90 1   
    89   82   83 1   
    90   82   84 2   
    91   83   91 1   
    92   83   92 1   
    93   93   94 1   
    94   93  100 1   
    95   94   95 1   
    96   94   97 1   
    97   94  101 1   
    98   95   96 2   
    99   95  109 1   
   100   97   98 1   
   101   97   99 1   
   102   97  102 1   
   103   98  103 1   
   104   98  104 1   
   105   98  105 1   
   106   99  106 1   
   107   99  107 1   
   108   99  108 1   
   109  109  110 1   
   110  109  117 1   
   111  110  111 1   
   112  110  113 1   
   113  110  118 1   
   114  111  112 2   
   115  111  123 1   
   116  113  114 1   
   117  113  119 1   
   118  113  120 1   
   119  114  115 1   
   120  114  116 2   
   121  115  121 1   
   122  115  122 1   
   123  123  124 1   
   124  123  135 1   
   125  124  125 1   
   126  124  127 1   
   127  124  136 1   
   128  125  126 2   
   129  125  144 1   
   130  127  128 1   
   131  127  137 1   
   132  127  138 1   
   133  128  129 ar  
   134  128  130 ar  
   135  129  131 ar  
   136  129  139 1   
   137  130  132 ar  
   138  130  140 1   
   139  131  133 ar  
   140  131  141 1   
   141  132  133 ar  
   142  132  142 1   
   143  133  134 1   
   144  134  143 1   
   145  144  145 1   
   146  144  153 1   
   147  145  146 1   
   148  145  148 1   
   149  145  154 1   
   150  146  147 2   
   151  146  159 1   
   152  148  149 1   
   153  148  155 1   
   154  148  156 1   
   155  149  150 1   
   156  149  157 1   
   157  149  158 1   
   158  150  151 1   
   159  150  152 1   
   160  159  160 1   
   161  159  168 1   
   162  160  161 1   
   163  160  163 1   
   164  160  169 1   
   165  161  162 2   
   166  161  174 1   
   167  163  164 1   
   168  163  170 1   
   169  163  171 1   
   170  164  165 1   
   171  164  172 1   
   172  164  173 1   
   173  165  166 1   
   174  165  167 1   
   175  174  175 1   
   176  174  179 1   
   177  175  176 1   
   178  175  177 1   
   179  175  178 1   
   180  181  182 1   
   181  181  183 1   
@<TRIPOS>SUBSTRUCTURE
     1 MOL         1 TEMP              0 ****  ****    0 ROOT
