@<TRIPOS>MOLECULE
MOL
  172   171     1     0     0
SMALL
resp


@<TRIPOS>ATOM
      1 C1          0.0220    4.4370    5.4870 c3        1 MOL     -0.501081
      2 C2         -0.4820    4.1710    4.0660 c         1 MOL      0.656185
      3 O1          0.2640    3.8220    3.1560 o         1 MOL     -0.525677
      4 H1          0.5530    5.3890    5.5120 hc        1 MOL      0.127943
      5 H2         -0.8250    4.4760    6.1720 hc        1 MOL      0.127943
      6 H3          0.6980    3.6370    5.7900 hc        1 MOL      0.127943
      7 N1         -1.7900    4.0630    3.8970 n         1 MOL     -0.442744
      8 C3         -2.3430    3.7310    2.6170 c3        1 MOL      0.067198
      9 C4         -2.4820    4.9220    1.6490 c         1 MOL      0.477913
     10 O2         -2.7840    6.0800    2.0920 o         1 MOL     -0.563743
     11 C5         -3.6960    3.0570    2.8550 c3        1 MOL     -0.322732
     12 C6         -4.2800    2.6490    1.5230 c         1 MOL      0.601910
     13 O3         -5.0810    3.4420    0.9680 o         1 MOL     -0.589548
     14 O4         -3.7620    1.6440    0.9030 o         1 MOL     -0.589548
     15 H4         -2.3950    4.2290    4.6910 hn        1 MOL      0.284628
     16 H5         -1.7080    2.9640    2.1700 h1        1 MOL      0.060988
     17 H6         -4.3190    3.8670    3.2350 hc        1 MOL      0.087844
     18 H7         -3.6530    2.2450    3.5900 hc        1 MOL      0.087844
     19 N2         -2.2750    4.7000    0.3380 n         1 MOL     -0.347472
     20 C7         -2.5610    5.5870   -0.7680 c3        1 MOL      0.443078
     21 C8         -3.2080    4.9080   -1.9900 c         1 MOL      0.360171
     22 O5         -3.0560    5.3940   -3.0850 o         1 MOL     -0.537508
     23 C9         -1.3510    6.4430   -1.1160 c3        1 MOL     -0.370548
     24 H8         -2.0570    3.7190    0.2050 hn        1 MOL      0.215616
     25 H9         -3.3150    6.2360   -0.3340 h1        1 MOL     -0.021947
     26 H10        -1.0070    6.8380   -0.1670 hc        1 MOL      0.081403
     27 H11        -0.5880    5.7430   -1.4490 hc        1 MOL      0.081403
     28 H12        -1.5870    7.2400   -1.8180 hc        1 MOL      0.081403
     29 N3         -3.9350    3.7860   -1.8220 n         1 MOL     -0.139675
     30 C10        -4.7490    3.1250   -2.8770 c3        1 MOL     -0.004328
     31 C11        -5.9740    2.3510   -2.3160 c         1 MOL      0.351400
     32 O6         -6.9210    2.2910   -3.0660 o         1 MOL     -0.538036
     33 C12        -3.8530    2.3640   -3.8610 c3        1 MOL     -0.082155
     34 C13        -3.0480    1.3350   -3.0480 c         1 MOL      0.652794
     35 O7         -3.5540    0.5640   -2.1880 o         1 MOL     -0.670091
     36 O8         -1.8220    1.2950   -3.1850 o         1 MOL     -0.670091
     37 H13        -3.9940    3.4600   -0.8640 hn        1 MOL      0.029700
     38 H14        -5.1420    3.9450   -3.4780 h1        1 MOL      0.064976
     39 H15        -3.1510    3.0400   -4.3500 hc        1 MOL      0.036650
     40 H16        -4.3770    1.7530   -4.5970 hc        1 MOL      0.036650
     41 N4         -6.0320    1.8330   -1.0820 n         1 MOL      0.051707
     42 C14        -7.1470    1.0930   -0.5920 c3        1 MOL     -0.378732
     43 C15        -7.1260   -0.3790   -1.1070 c         1 MOL      0.547040
     44 O9         -8.1380   -1.0850   -1.0660 o         1 MOL     -0.609945
     45 H17        -5.2740    2.0320   -0.4450 hn        1 MOL      0.109667
     46 H18        -8.0720    1.5890   -0.8820 h1        1 MOL      0.139184
     47 H19        -7.0510    1.0350    0.4970 h1        1 MOL      0.139184
     48 N5         -5.9710   -0.8790   -1.6460 n         1 MOL     -0.183218
     49 C16        -5.9800   -2.3110   -2.1750 c3        1 MOL     -0.036704
     50 C17        -6.1120   -3.3720   -1.0420 c         1 MOL      0.477457
     51 O10        -6.2270   -4.5470   -1.4120 o         1 MOL     -0.535380
     52 C18        -4.7700   -2.5090   -3.1660 c3        1 MOL     -0.078612
     53 C19        -3.4380   -2.6050   -2.4480 c         1 MOL      0.536757
     54 N6         -2.3940   -2.8300   -3.2220 n         1 MOL     -0.665094
     55 O11        -3.2860   -2.5340   -1.2270 o         1 MOL     -0.414336
     56 H20        -5.1590   -0.2830   -1.5980 hn        1 MOL      0.066948
     57 H21        -6.8450   -2.3380   -2.8380 h1        1 MOL      0.103436
     58 H22        -4.7030   -1.7100   -3.9000 hc        1 MOL      0.037826
     59 H23        -4.9510   -3.4300   -3.7120 hc        1 MOL      0.037826
     60 H24        -2.4930   -2.7990   -4.2230 hn        1 MOL      0.341517
     61 H25        -1.4810   -2.8030   -2.8020 hn        1 MOL      0.341517
     62 N7         -6.2090   -2.9760    0.2370 n         1 MOL     -0.285556
     63 C20        -6.2520   -3.8390    1.3760 c3        1 MOL     -0.201068
     64 C21        -4.9830   -4.3470    1.9380 c         1 MOL      0.430622
     65 O12        -5.0090   -5.1900    2.8740 o         1 MOL     -0.558154
     66 H26        -6.2110   -1.9730    0.3760 hn        1 MOL      0.260221
     67 H27        -6.7920   -4.7370    1.0920 h1        1 MOL      0.117195
     68 H28        -6.8880   -3.3810    2.1300 h1        1 MOL      0.117195
     69 N8         -3.9020   -3.8250    1.3800 n         1 MOL     -0.098846
     70 C22        -2.5320   -4.3060    1.7560 c3        1 MOL     -0.365405
     71 C23        -1.4580   -3.1480    1.8330 c         1 MOL      0.623017
     72 O13        -1.5900   -2.1560    1.1900 o         1 MOL     -0.571660
     73 C24        -2.0640   -5.4320    0.8320 c3        1 MOL      0.632696
     74 C25        -2.6820   -6.7600    1.0500 c3        1 MOL     -0.586714
     75 O14        -2.1800   -5.0500   -0.4970 oh        1 MOL     -0.579090
     76 H29        -3.9780   -2.9760    0.8340 hn        1 MOL      0.218853
     77 H30        -2.5500   -4.8020    2.7250 h1        1 MOL      0.117084
     78 H31        -0.9890   -5.5460    0.9710 h1        1 MOL     -0.040373
     79 H32        -2.6110   -4.1910   -0.4700 ho        1 MOL      0.253491
     80 H33        -2.3300   -7.4930    0.3220 hc        1 MOL      0.139983
     81 H34        -2.5360   -7.0090    2.1040 hc        1 MOL      0.139983
     82 H35        -3.7620   -6.7490    0.9250 hc        1 MOL      0.139983
     83 N9         -0.2990   -3.4320    2.4740 n         1 MOL     -0.505022
     84 C26         0.9480   -2.7090    2.4150 c3        1 MOL      0.116933
     85 C27         1.7030   -3.0370    1.1040 c         1 MOL      0.599625
     86 O15         2.2690   -4.1390    1.0370 o         1 MOL     -0.626873
     87 C28         1.8000   -2.6590    3.7440 c3        1 MOL     -0.037442
     88 C29         1.1070   -1.6660    4.7090 c3        1 MOL      0.172328
     89 C30         3.2870   -2.3100    3.6320 c3        1 MOL     -0.164365
     90 C31         1.5790   -1.5740    6.1710 c3        1 MOL     -0.186471
     91 H36        -0.3690   -4.2670    3.0260 hn        1 MOL      0.262915
     92 H37         0.6840   -1.6700    2.2140 h1        1 MOL      0.007861
     93 H38         1.6920   -3.6560    4.1600 hc        1 MOL      0.009128
     94 H39         0.0270   -1.8380    4.7200 hc        1 MOL     -0.020027
     95 H40         1.2030   -0.6660    4.2870 hc        1 MOL     -0.020027
     96 H41         3.2600   -1.2440    3.4330 hc        1 MOL      0.045479
     97 H42         3.7990   -2.5390    4.5710 hc        1 MOL      0.045479
     98 H43         3.7450   -2.8920    2.8330 hc        1 MOL      0.045479
     99 H44         0.9870   -0.7940    6.6530 hc        1 MOL      0.033032
    100 H45         1.3110   -2.5380    6.6160 hc        1 MOL      0.033032
    101 H46         2.6600   -1.4570    6.1250 hc        1 MOL      0.033032
    102 N10         1.6950   -2.1920    0.1550 n         1 MOL     -0.180830
    103 C32         2.5890   -2.2870   -0.9620 c3        1 MOL     -0.006790
    104 C33         3.9610   -1.6610   -0.5740 c         1 MOL      0.245205
    105 O16         4.0570   -0.9510    0.3910 o         1 MOL     -0.125593
    106 C34         2.0420   -1.4600   -2.1560 c3        1 MOL     -0.168564
    107 C35         0.6120   -1.8590   -2.5030 c         1 MOL      0.684921
    108 O17        -0.4080   -1.5570   -1.8280 o         1 MOL     -0.678802
    109 O18         0.4580   -2.3260   -3.6480 o         1 MOL     -0.678802
    110 H47         1.3000   -1.2830    0.3370 hn        1 MOL      0.000736
    111 H48         2.7310   -3.2870   -1.3660 h1        1 MOL      0.070013
    112 H49         2.6630   -1.5520   -3.0510 hc        1 MOL      0.078904
    113 H50         1.9320   -0.4030   -1.8970 hc        1 MOL      0.078904
    114 N11         4.9070   -1.8710   -1.4700 n         1 MOL     -0.447556
    115 C36         6.2640   -1.4540   -1.3280 c3        1 MOL      0.241489
    116 C37         6.5390    0.0830   -1.0410 c         1 MOL      0.267813
    117 O19         7.2070    0.3540   -0.0110 o         1 MOL     -0.479585
    118 C38         7.1170   -1.8320   -2.5370 c3        1 MOL     -0.306421
    119 C39         8.6520   -1.6510   -2.3200 ca        1 MOL      0.260073
    120 C40         9.4350   -2.3380   -1.3690 ca        1 MOL     -0.252799
    121 C41         9.3370   -0.8610   -3.2650 ca        1 MOL     -0.252799
    122 C42        10.8150   -2.0610   -1.1440 ca        1 MOL     -0.071843
    123 C43        10.7530   -0.5850   -3.0490 ca        1 MOL     -0.071843
    124 C44        11.4520   -1.1700   -1.9970 ca        1 MOL     -0.143833
    125 H51         4.6450   -2.4650   -2.2460 hn        1 MOL      0.313978
    126 H52         6.5950   -1.9590   -0.4250 h1        1 MOL      0.077627
    127 H53         6.7460   -1.2320   -3.3660 hc        1 MOL      0.081686
    128 H54         6.9580   -2.8890   -2.7640 hc        1 MOL      0.081686
    129 H55         8.8470   -2.9150   -0.6690 ha        1 MOL      0.129761
    130 H56         8.8920   -0.4310   -4.1500 ha        1 MOL      0.129761
    131 H57        11.3700   -2.4080   -0.2810 ha        1 MOL      0.107741
    132 H58        11.2590    0.1250   -3.6820 ha        1 MOL      0.107741
    133 H59        12.5040   -1.0440   -1.7980 ha        1 MOL      0.105257
    134 N12         6.0570    1.0540   -1.8330 n         1 MOL      0.035867
    135 C45         6.1270    2.4520   -1.4150 c3        1 MOL     -0.119852
    136 C46         5.4020    2.9180   -0.0980 c         1 MOL      0.434368
    137 O20         5.6190    3.9950    0.3710 o         1 MOL     -0.526095
    138 C47         5.4680    3.2400   -2.5710 c3        1 MOL     -0.130560
    139 C48         4.6230    2.1790   -3.3320 c3        1 MOL      0.048381
    140 C49         5.2490    0.8250   -3.0790 c3        1 MOL     -0.053772
    141 H60         7.1290    2.8450   -1.2650 h1        1 MOL      0.100021
    142 H61         4.8000    4.0460   -2.2980 hc        1 MOL      0.061354
    143 H62         6.2260    3.5830   -3.2780 hc        1 MOL      0.061354
    144 H63         3.5940    2.1140   -2.9790 hc        1 MOL      0.028156
    145 H64         4.5670    2.5360   -4.3680 hc        1 MOL      0.028156
    146 H65         4.4830    0.0460   -3.0530 h1        1 MOL      0.025994
    147 H66         6.0140    0.6930   -3.8460 h1        1 MOL      0.025994
    148 N13         4.5960    2.0460    0.5140 n         1 MOL     -0.081642
    149 C50         4.0250    2.1780    1.8770 c3        1 MOL     -0.058259
    150 C51         4.9000    1.3720    2.8510 c         1 MOL      0.392211
    151 O21         5.0680    1.8010    4.0260 o         1 MOL     -0.588475
    152 C52         2.5920    1.6250    1.9030 c3        1 MOL     -0.054890
    153 C53         1.7550    2.3660    0.8440 c3        1 MOL     -0.066563
    154 C54         0.3710    1.6470    0.4750 c         1 MOL      0.808824
    155 O22         0.2450    0.4150    0.5510 o         1 MOL     -0.773721
    156 O23        -0.6410    2.1790    0.0030 o         1 MOL     -0.773721
    157 H67         4.4880    1.1120    0.1590 hn        1 MOL      0.070298
    158 H68         4.0870    3.1940    2.2400 h1        1 MOL      0.111233
    159 H69         2.1030    1.8620    2.8520 hc        1 MOL      0.070869
    160 H70         2.6770    0.5600    1.7400 hc        1 MOL      0.070869
    161 H71         2.2110    2.4700   -0.1410 hc        1 MOL      0.023199
    162 H72         1.6880    3.3850    1.2250 hc        1 MOL      0.023199
    163 N14         5.5540    0.3070    2.4640 n         1 MOL      0.027581
    164 C55         6.4840   -0.5100    3.3040 c3        1 MOL     -0.176609
    165 H73         7.1160    0.1530    3.8950 h1        1 MOL      0.074269
    166 H74         5.9050   -1.1490    3.9700 h1        1 MOL      0.074269
    167 H75         7.1090   -1.1280    2.6590 h1        1 MOL      0.074269
    168 H76         5.4980    0.0020    1.5010 hn        1 MOL     -0.064380
    169 Ca1        -2.0770   -0.1620   -0.3330 Ca        1 MOL      1.732136
    170 O24        -4.3940   -0.8270    1.2080 oh        1 MOL     -0.955865
    171 H77        -5.0900   -1.1170    1.8060 ho        1 MOL      0.411019
    172 H78        -4.2900    0.1050    1.4030 ho        1 MOL      0.411019
@<TRIPOS>BOND
     1    1    2 1   
     2    1    4 1   
     3    1    5 1   
     4    1    6 1   
     5    2    3 2   
     6    2    7 1   
     7    7    8 1   
     8    7   15 1   
     9    8    9 1   
    10    8   11 1   
    11    8   16 1   
    12    9   10 2   
    13    9   19 1   
    14   11   12 1   
    15   11   17 1   
    16   11   18 1   
    17   12   13 1   
    18   12   14 1   
    19   19   20 1   
    20   19   24 1   
    21   20   21 1   
    22   20   23 1   
    23   20   25 1   
    24   21   22 2   
    25   21   29 1   
    26   23   26 1   
    27   23   27 1   
    28   23   28 1   
    29   29   30 1   
    30   29   37 1   
    31   30   31 1   
    32   30   33 1   
    33   30   38 1   
    34   31   32 2   
    35   31   41 1   
    36   33   34 1   
    37   33   39 1   
    38   33   40 1   
    39   34   35 1   
    40   34   36 1   
    41   41   42 1   
    42   41   45 1   
    43   42   43 1   
    44   42   46 1   
    45   42   47 1   
    46   43   44 2   
    47   43   48 1   
    48   48   49 1   
    49   48   56 1   
    50   49   50 1   
    51   49   52 1   
    52   49   57 1   
    53   50   51 2   
    54   50   62 1   
    55   52   53 1   
    56   52   58 1   
    57   52   59 1   
    58   53   54 1   
    59   53   55 2   
    60   54   60 1   
    61   54   61 1   
    62   62   63 1   
    63   62   66 1   
    64   63   64 1   
    65   63   67 1   
    66   63   68 1   
    67   64   65 2   
    68   64   69 1   
    69   69   70 1   
    70   69   76 1   
    71   70   71 1   
    72   70   73 1   
    73   70   77 1   
    74   71   72 2   
    75   71   83 1   
    76   73   74 1   
    77   73   75 1   
    78   73   78 1   
    79   74   80 1   
    80   74   81 1   
    81   74   82 1   
    82   75   79 1   
    83   83   84 1   
    84   83   91 1   
    85   84   85 1   
    86   84   87 1   
    87   84   92 1   
    88   85   86 2   
    89   85  102 1   
    90   87   88 1   
    91   87   89 1   
    92   87   93 1   
    93   88   90 1   
    94   88   94 1   
    95   88   95 1   
    96   89   96 1   
    97   89   97 1   
    98   89   98 1   
    99   90   99 1   
   100   90  100 1   
   101   90  101 1   
   102  102  103 1   
   103  102  110 1   
   104  103  104 1   
   105  103  106 1   
   106  103  111 1   
   107  104  105 2   
   108  104  114 1   
   109  106  107 1   
   110  106  112 1   
   111  106  113 1   
   112  107  108 1   
   113  107  109 1   
   114  114  115 1   
   115  114  125 1   
   116  115  116 1   
   117  115  118 1   
   118  115  126 1   
   119  116  117 2   
   120  116  134 1   
   121  118  119 1   
   122  118  127 1   
   123  118  128 1   
   124  119  120 ar  
   125  119  121 ar  
   126  120  122 ar  
   127  120  129 1   
   128  121  123 ar  
   129  121  130 1   
   130  122  124 ar  
   131  122  131 1   
   132  123  124 ar  
   133  123  132 1   
   134  124  133 1   
   135  134  135 1   
   136  134  140 1   
   137  135  136 1   
   138  135  138 1   
   139  135  141 1   
   140  136  137 2   
   141  136  148 1   
   142  138  139 1   
   143  138  142 1   
   144  138  143 1   
   145  139  140 1   
   146  139  144 1   
   147  139  145 1   
   148  140  146 1   
   149  140  147 1   
   150  148  149 1   
   151  148  157 1   
   152  149  150 1   
   153  149  152 1   
   154  149  158 1   
   155  150  151 2   
   156  150  163 1   
   157  152  153 1   
   158  152  159 1   
   159  152  160 1   
   160  153  154 1   
   161  153  161 1   
   162  153  162 1   
   163  154  155 1   
   164  154  156 1   
   165  163  164 1   
   166  163  168 1   
   167  164  165 1   
   168  164  166 1   
   169  164  167 1   
   170  170  171 1   
   171  170  172 1   
@<TRIPOS>SUBSTRUCTURE
     1 MOL         1 TEMP              0 ****  ****    0 ROOT
