@<TRIPOS>MOLECULE
MOL
  179   176     1     0     0
SMALL
resp


@<TRIPOS>ATOM
      1 C1          2.7880    1.9760    5.3020 c3        1 MOL     -0.238067
      2 C2          2.0180    2.0880    3.9560 c         1 MOL      0.687178
      3 O1          2.6340    2.1920    2.8970 o         1 MOL     -0.611975
      4 H1          3.2300    2.9420    5.5480 hc        1 MOL      0.058008
      5 H2          2.0990    1.6800    6.0920 hc        1 MOL      0.058008
      6 H3          3.5760    1.2290    5.2090 hc        1 MOL      0.058008
      7 N1          0.7420    2.1190    4.0350 n         1 MOL     -0.425443
      8 C3         -0.1890    2.0860    2.9070 c3        1 MOL     -0.038979
      9 C4         -0.2420    3.4630    2.2140 c         1 MOL      0.401846
     10 O2         -1.0970    4.3750    2.4470 o         1 MOL     -0.486799
     11 C5         -1.6120    1.7470    3.3950 c3        1 MOL     -0.098217
     12 C6         -2.5740    1.5290    2.2030 c         1 MOL      0.710587
     13 O3         -3.7940    1.5510    2.4970 o         1 MOL     -0.678944
     14 O4         -2.1770    1.3620    0.9750 o         1 MOL     -0.678944
     15 H4          0.3270    1.8970    4.9270 hn        1 MOL      0.277578
     16 H5          0.2150    1.3450    2.2260 h1        1 MOL      0.078273
     17 H6         -2.0300    2.5800    3.9510 hc        1 MOL      0.047416
     18 H7         -1.6360    0.8610    4.0300 hc        1 MOL      0.047416
     19 N2          0.6730    3.7170    1.2590 n         1 MOL     -0.143909
     20 C7          0.9810    4.9980    0.6980 c3        1 MOL     -0.129908
     21 C8         -0.1640    5.6030   -0.1570 c         1 MOL      0.488444
     22 O5         -0.3210    6.8390   -0.0080 o         1 MOL     -0.566455
     23 C9          2.2170    4.7720   -0.1570 c3        1 MOL      0.103004
     24 C10         3.1470    6.0100   -0.2050 c3        1 MOL     -0.246073
     25 C11         4.4160    5.6240   -0.9810 c3        1 MOL      0.043092
     26 C12         4.9830    6.8260   -1.6000 c3        1 MOL      0.073312
     27 N3          6.2090    6.6530   -2.5030 n4        1 MOL     -0.482058
     28 H8          1.3160    2.9700    1.0590 hn        1 MOL      0.194467
     29 H9          1.2640    5.6240    1.5420 h1        1 MOL      0.098332
     30 H10         1.9270    4.4480   -1.1590 hc        1 MOL      0.047577
     31 H11         2.8630    3.9840    0.2250 hc        1 MOL      0.047577
     32 H12         3.4720    6.1870    0.8230 hc        1 MOL      0.086870
     33 H13         2.6040    6.8890   -0.5470 hc        1 MOL      0.086870
     34 H14         4.1140    4.9810   -1.8110 hc        1 MOL      0.035515
     35 H15         5.1030    5.1040   -0.3070 hc        1 MOL      0.035515
     36 H16         5.2810    7.5530   -0.8470 hx        1 MOL      0.073829
     37 H17         4.1460    7.2390   -2.1700 hx        1 MOL      0.073829
     38 H18         6.6930    7.5250   -2.6560 hn        1 MOL      0.356168
     39 H19         6.9080    6.0390   -2.1020 hn        1 MOL      0.356168
     40 H20         5.8700    6.1830   -3.3280 hn        1 MOL      0.356168
     41 N4         -0.9410    4.8070   -0.8500 n         1 MOL     -0.349244
     42 C13        -2.0930    5.3200   -1.5870 c3        1 MOL      0.081771
     43 C14        -3.4640    5.1540   -0.9200 c         1 MOL      0.379279
     44 O6         -4.4830    5.4940   -1.5390 o         1 MOL     -0.529095
     45 C15        -2.0940    4.5850   -2.9750 c3        1 MOL     -0.202693
     46 C16        -2.1740    2.9970   -2.9760 c         1 MOL      0.741107
     47 O7         -2.0760    2.3560   -4.0680 o         1 MOL     -0.706110
     48 O8         -2.3750    2.3760   -1.8870 o         1 MOL     -0.706110
     49 H21        -0.7580    3.8150   -0.8510 hn        1 MOL      0.235928
     50 H22        -2.0050    6.3860   -1.8020 h1        1 MOL      0.087618
     51 H23        -1.2030    4.8440   -3.5630 hc        1 MOL      0.042034
     52 H24        -2.9650    4.9720   -3.4830 hc        1 MOL      0.042034
     53 N5         -3.4940    4.7100    0.3200 n         1 MOL     -0.050039
     54 C17        -4.7080    4.5540    1.0060 c3        1 MOL     -0.371834
     55 C18        -5.6150    3.4430    0.5020 c         1 MOL      0.648977
     56 O9         -6.7660    3.4260    0.9530 o         1 MOL     -0.594771
     57 H25        -2.6490    4.4660    0.8160 hn        1 MOL      0.161980
     58 H26        -5.2390    5.5070    0.9030 h1        1 MOL      0.147424
     59 H27        -4.5080    4.2920    2.0440 h1        1 MOL      0.147424
     60 N6         -5.2100    2.6040   -0.4460 n         1 MOL     -0.369317
     61 C19        -6.1200    1.6030   -1.0050 c3        1 MOL      0.014145
     62 C20        -6.3270    0.4030   -0.1050 c         1 MOL      0.352213
     63 O10        -7.1940   -0.4100   -0.4460 o         1 MOL     -0.554119
     64 C21        -5.6200    1.2900   -2.4170 c3        1 MOL     -0.246790
     65 C22        -4.8400    0.0220   -2.5140 c         1 MOL      0.720832
     66 N7         -5.2120   -0.9750   -3.3140 n         1 MOL     -0.743795
     67 O11        -3.8710   -0.1030   -1.8200 o         1 MOL     -0.701958
     68 H28        -4.3080    2.7400   -0.8880 hn        1 MOL      0.264490
     69 H29        -7.1320    1.9910   -1.1170 h1        1 MOL      0.115653
     70 H30        -4.9930    2.0650   -2.8360 hc        1 MOL      0.104264
     71 H31        -6.4850    1.2330   -3.0890 hc        1 MOL      0.104264
     72 H32        -5.9740   -0.8660   -3.9580 hn        1 MOL      0.335900
     73 H33        -4.6130   -1.7870   -3.4010 hn        1 MOL      0.335900
     74 N8         -5.6500    0.2650    0.9900 n         1 MOL      0.043317
     75 C23        -6.1100   -0.7380    2.0140 c3        1 MOL     -0.336581
     76 C24        -5.4260   -2.1850    1.9250 c         1 MOL      0.467258
     77 O12        -5.8030   -3.1760    2.5300 o         1 MOL     -0.528144
     78 H34        -4.8460    0.8130    1.2770 hn        1 MOL      0.168498
     79 H35        -7.1880   -0.8260    2.0970 h1        1 MOL      0.146114
     80 H36        -5.7450   -0.2720    2.9360 h1        1 MOL      0.146114
     81 N9         -4.3100   -2.1910    1.2240 n         1 MOL     -0.122715
     82 C25        -3.3240   -3.2910    1.2600 c3        1 MOL      0.473807
     83 C26        -1.8640   -2.7020    1.3200 c         1 MOL      0.196766
     84 O13        -1.5910   -1.5060    1.0370 o         1 MOL     -0.578379
     85 C27        -3.4360   -4.2520    0.0140 c3        1 MOL     -0.005067
     86 C28        -4.7960   -4.7840   -0.4490 ca        1 MOL     -0.173704
     87 C29        -5.6080   -3.9580   -1.3260 ca        1 MOL      0.002563
     88 C30        -5.2560   -6.0370   -0.0660 ca        1 MOL      0.002563
     89 C31        -6.7320   -4.5350   -1.9000 ca        1 MOL     -0.288048
     90 C32        -6.4480   -6.5510   -0.6140 ca        1 MOL     -0.288048
     91 C33        -7.1900   -5.8650   -1.5690 ca        1 MOL      0.307614
     92 O14        -8.4090   -6.3630   -1.9770 oh        1 MOL     -0.492375
     93 H37        -4.0510   -1.3100    0.7990 hn        1 MOL      0.056281
     94 H38        -3.5750   -3.8740    2.1460 h1        1 MOL     -0.066170
     95 H39        -2.8050   -5.0820    0.3360 hc        1 MOL     -0.012979
     96 H40        -2.8830   -3.8190   -0.8170 hc        1 MOL     -0.012979
     97 H41        -5.3360   -2.9320   -1.5550 ha        1 MOL      0.093786
     98 H42        -4.6350   -6.7110    0.4970 ha        1 MOL      0.093786
     99 H43        -7.4280   -4.0910   -2.5980 ha        1 MOL      0.148151
    100 H44        -6.8250   -7.4630   -0.1810 ha        1 MOL      0.148151
    101 H45        -8.8900   -5.7420   -2.5170 ho        1 MOL      0.380264
    102 N10        -0.8890   -3.4560    1.8310 n         1 MOL     -0.339266
    103 C34         0.5700   -3.1760    1.8630 c3        1 MOL      0.037910
    104 C35         1.2280   -3.9330    0.6690 c         1 MOL      0.365168
    105 O15         1.0940   -5.1520    0.5030 o         1 MOL     -0.536240
    106 C36         1.2880   -3.5700    3.2130 c3        1 MOL      0.038643
    107 C37         0.4580   -3.1980    4.4620 c3        1 MOL      0.028981
    108 C38         2.7780   -2.9410    3.2960 c3        1 MOL     -0.362130
    109 C39        -0.0460   -1.7180    4.6330 c3        1 MOL     -0.045500
    110 H46        -0.9850   -4.4000    2.1700 hn        1 MOL      0.284487
    111 H47         0.7310   -2.1030    1.7940 h1        1 MOL      0.166479
    112 H48         1.3380   -4.6510    3.3100 hc        1 MOL      0.030403
    113 H49         0.9930   -3.4250    5.3950 hc        1 MOL      0.006555
    114 H50        -0.4270   -3.8420    4.4560 hc        1 MOL      0.006555
    115 H51         3.0350   -2.9920    4.3540 hc        1 MOL      0.084739
    116 H52         3.5730   -3.3890    2.7110 hc        1 MOL      0.084739
    117 H53         2.7570   -1.8810    3.0280 hc        1 MOL      0.084739
    118 H54        -0.0470   -1.4210    5.6810 hc        1 MOL      0.010590
    119 H55         0.5730   -0.9800    4.1030 hc        1 MOL      0.010590
    120 H56        -1.0900   -1.7080    4.3300 hc        1 MOL      0.010590
    121 N11         1.9630   -3.1900   -0.1690 n         1 MOL     -0.086005
    122 C40         2.8720   -3.8920   -1.0600 c3        1 MOL     -0.009304
    123 C41         4.3240   -3.8790   -0.5980 c         1 MOL      0.418733
    124 O16         4.6920   -3.1630    0.3330 o         1 MOL     -0.379820
    125 C42         2.7360   -3.3950   -2.5380 c3        1 MOL      0.270728
    126 O17         1.4490   -3.5240   -3.0740 oh        1 MOL     -0.634665
    127 H57         1.8940   -2.1830   -0.0790 hn        1 MOL      0.237646
    128 H58         2.6450   -4.9540   -1.1150 h1        1 MOL      0.099233
    129 H59         3.3810   -3.9340   -3.2240 h1        1 MOL     -0.024875
    130 H60         3.0920   -2.3650   -2.5510 h1        1 MOL     -0.024875
    131 H61         1.2950   -3.0260   -3.8820 ho        1 MOL      0.407450
    132 N12         5.2610   -4.7370   -1.0900 n         1 MOL     -0.469031
    133 C43         6.6750   -4.6860   -0.7390 c3        1 MOL      0.154750
    134 C44         7.3570   -3.3050   -1.0690 c         1 MOL      0.389419
    135 O18         8.1920   -2.9370   -0.2300 o         1 MOL     -0.506297
    136 C45         7.4060   -5.9030   -1.3720 c3        1 MOL     -0.359842
    137 H62         4.8930   -5.5370   -1.5890 hn        1 MOL      0.286506
    138 H63         6.7170   -4.8220    0.3430 h1        1 MOL      0.084941
    139 H64         8.4640   -5.9040   -1.1180 hc        1 MOL      0.112780
    140 H65         6.9220   -6.8180   -1.0350 hc        1 MOL      0.112780
    141 H66         7.2740   -5.9550   -2.4540 hc        1 MOL      0.112780
    142 N13         7.0530   -2.5880   -2.1100 n         1 MOL     -0.223818
    143 C46         7.6430   -1.2700   -2.4210 c3        1 MOL      0.039582
    144 C47         7.0790   -0.1240   -1.5290 c         1 MOL      0.405407
    145 O19         7.7310    0.8490   -1.2310 o         1 MOL     -0.501046
    146 C48         7.4620   -0.9880   -3.9140 c3        1 MOL     -0.345689
    147 H67         6.3570   -2.8680   -2.7780 hn        1 MOL      0.182102
    148 H68         8.7090   -1.4200   -2.2590 h1        1 MOL      0.115819
    149 H69         7.8790    0.0040   -4.0960 hc        1 MOL      0.103849
    150 H70         7.9470   -1.7460   -4.5310 hc        1 MOL      0.103849
    151 H71         6.4260   -1.0910   -4.2340 hc        1 MOL      0.103849
    152 N14         5.8860   -0.3280   -1.0170 n         1 MOL     -0.242486
    153 C49         5.2700    0.4370    0.1180 c3        1 MOL     -0.022342
    154 C50         5.9740    0.3110    1.4370 c         1 MOL      0.425776
    155 O20         6.3580    1.3270    1.9630 o         1 MOL     -0.532075
    156 C51         3.7950    0.2530    0.2070 c3        1 MOL      0.348813
    157 C52         3.0820    0.9720   -0.9310 c3        1 MOL      0.021873
    158 C53         1.5980    0.7910   -0.6950 c         1 MOL      0.897282
    159 O21         1.0790   -0.2800   -0.3260 o         1 MOL     -0.863767
    160 O22         0.8070    1.7380   -0.8340 o         1 MOL     -0.863767
    161 H72         5.4940   -1.2230   -1.2570 hn        1 MOL      0.143835
    162 H73         5.4370    1.4720   -0.1630 h1        1 MOL      0.044695
    163 H74         3.4720    0.6100    1.1930 hc        1 MOL     -0.119910
    164 H75         3.6060   -0.8170    0.1890 hc        1 MOL     -0.119910
    165 H76         3.3090    0.5080   -1.8890 hc        1 MOL     -0.087743
    166 H77         3.3140    2.0330   -0.9490 hc        1 MOL     -0.087743
    167 N15         6.2160   -0.8750    1.9020 n         1 MOL     -0.091290
    168 C54         7.0210   -1.2130    3.1030 c3        1 MOL     -0.164370
    169 H78         7.4300   -0.2990    3.5340 h1        1 MOL      0.085128
    170 H79         6.3870   -1.7080    3.8390 h1        1 MOL      0.085128
    171 H80         7.8370   -1.8780    2.8190 h1        1 MOL      0.085128
    172 H81         5.7730   -1.6570    1.4470 hn        1 MOL      0.128661
    173 Ca1        -1.3280    0.1420   -1.0830 Ca        1 MOL      1.810902
    174 O23        -0.3410   -0.0820   -3.6040 oh        1 MOL     -0.876980
    175 H82         0.2620   -0.6800   -4.0370 ho        1 MOL      0.416171
    176 H83        -0.9140    0.2280   -4.3060 ho        1 MOL      0.416171
    177 O24        -0.6410   -2.4390   -1.6300 oh        1 MOL     -0.876980
    178 H84        -1.1780   -3.1830   -1.8960 ho        1 MOL      0.416171
    179 H85         0.2530   -2.7920   -1.5750 ho        1 MOL      0.416171
@<TRIPOS>BOND
     1    1    2 1   
     2    1    4 1   
     3    1    5 1   
     4    1    6 1   
     5    2    3 2   
     6    2    7 1   
     7    7    8 1   
     8    7   15 1   
     9    8    9 1   
    10    8   11 1   
    11    8   16 1   
    12    9   10 2   
    13    9   19 1   
    14   11   12 1   
    15   11   17 1   
    16   11   18 1   
    17   12   13 1   
    18   12   14 1   
    19   19   20 1   
    20   19   28 1   
    21   20   21 1   
    22   20   23 1   
    23   20   29 1   
    24   21   22 2   
    25   21   41 1   
    26   23   24 1   
    27   23   30 1   
    28   23   31 1   
    29   24   25 1   
    30   24   32 1   
    31   24   33 1   
    32   25   26 1   
    33   25   34 1   
    34   25   35 1   
    35   26   27 1   
    36   26   36 1   
    37   26   37 1   
    38   27   38 1   
    39   27   39 1   
    40   27   40 1   
    41   41   42 1   
    42   41   49 1   
    43   42   43 1   
    44   42   45 1   
    45   42   50 1   
    46   43   44 2   
    47   43   53 1   
    48   45   46 1   
    49   45   51 1   
    50   45   52 1   
    51   46   47 1   
    52   46   48 1   
    53   53   54 1   
    54   53   57 1   
    55   54   55 1   
    56   54   58 1   
    57   54   59 1   
    58   55   56 2   
    59   55   60 1   
    60   60   61 1   
    61   60   68 1   
    62   61   62 1   
    63   61   64 1   
    64   61   69 1   
    65   62   63 2   
    66   62   74 1   
    67   64   65 1   
    68   64   70 1   
    69   64   71 1   
    70   65   66 1   
    71   65   67 2   
    72   66   72 1   
    73   66   73 1   
    74   74   75 1   
    75   74   78 1   
    76   75   76 1   
    77   75   79 1   
    78   75   80 1   
    79   76   77 2   
    80   76   81 1   
    81   81   82 1   
    82   81   93 1   
    83   82   83 1   
    84   82   85 1   
    85   82   94 1   
    86   83   84 2   
    87   83  102 1   
    88   85   86 1   
    89   85   95 1   
    90   85   96 1   
    91   86   87 ar  
    92   86   88 ar  
    93   87   89 ar  
    94   87   97 1   
    95   88   90 ar  
    96   88   98 1   
    97   89   91 ar  
    98   89   99 1   
    99   90   91 ar  
   100   90  100 1   
   101   91   92 1   
   102   92  101 1   
   103  102  103 1   
   104  102  110 1   
   105  103  104 1   
   106  103  106 1   
   107  103  111 1   
   108  104  105 2   
   109  104  121 1   
   110  106  107 1   
   111  106  108 1   
   112  106  112 1   
   113  107  109 1   
   114  107  113 1   
   115  107  114 1   
   116  108  115 1   
   117  108  116 1   
   118  108  117 1   
   119  109  118 1   
   120  109  119 1   
   121  109  120 1   
   122  121  122 1   
   123  121  127 1   
   124  122  123 1   
   125  122  125 1   
   126  122  128 1   
   127  123  124 2   
   128  123  132 1   
   129  125  126 1   
   130  125  129 1   
   131  125  130 1   
   132  126  131 1   
   133  132  133 1   
   134  132  137 1   
   135  133  134 1   
   136  133  136 1   
   137  133  138 1   
   138  134  135 2   
   139  134  142 1   
   140  136  139 1   
   141  136  140 1   
   142  136  141 1   
   143  142  143 1   
   144  142  147 1   
   145  143  144 1   
   146  143  146 1   
   147  143  148 1   
   148  144  145 2   
   149  144  152 1   
   150  146  149 1   
   151  146  150 1   
   152  146  151 1   
   153  152  153 1   
   154  152  161 1   
   155  153  154 1   
   156  153  156 1   
   157  153  162 1   
   158  154  155 2   
   159  154  167 1   
   160  156  157 1   
   161  156  163 1   
   162  156  164 1   
   163  157  158 1   
   164  157  165 1   
   165  157  166 1   
   166  158  159 1   
   167  158  160 1   
   168  167  168 1   
   169  167  172 1   
   170  168  169 1   
   171  168  170 1   
   172  168  171 1   
   173  174  175 1   
   174  174  176 1   
   175  177  178 1   
   176  177  179 1   
@<TRIPOS>SUBSTRUCTURE
     1 MOL         1 TEMP              0 ****  ****    0 ROOT
