@<TRIPOS>MOLECULE
MOL
  189   185     1     0     0
SMALL
resp


@<TRIPOS>ATOM
      1 C1         -0.5800    0.5110    6.7550 c3        1 MOL     -0.422686
      2 C2         -0.7630    0.7820    5.3160 c         1 MOL      0.803161
      3 O1          0.1950    0.8580    4.5850 o         1 MOL     -0.608217
      4 H1         -1.2460   -0.2970    7.0590 hc        1 MOL      0.106372
      5 H2          0.4530    0.2180    6.9410 hc        1 MOL      0.106372
      6 H3         -0.8140    1.4090    7.3270 hc        1 MOL      0.106372
      7 N1         -2.0390    0.8430    4.8520 n         1 MOL     -0.664867
      8 C3         -2.3930    0.9340    3.4310 c3        1 MOL     -0.018510
      9 C4         -2.9210    2.2200    2.9900 c         1 MOL      0.651570
     10 O2         -3.9900    2.6180    3.3670 o         1 MOL     -0.536251
     11 C5         -3.3320   -0.2270    3.1760 c3        1 MOL     -0.033194
     12 C6         -3.8310   -0.5540    1.7500 c         1 MOL      0.449781
     13 O3         -3.3840    0.1210    0.7880 o         1 MOL     -0.593652
     14 O4         -4.6680   -1.4700    1.5450 o         1 MOL     -0.593652
     15 H4         -2.7260    0.5020    5.5090 hn        1 MOL      0.332965
     16 H5         -1.4620    0.7170    2.9080 h1        1 MOL      0.127619
     17 H6         -4.2040   -0.1660    3.8160 hc        1 MOL      0.043676
     18 H7         -2.9100   -1.1080    3.6520 hc        1 MOL      0.043676
     19 N2         -2.0680    2.9740    2.3450 n         1 MOL     -0.415779
     20 C7         -2.2020    4.4100    2.0050 c3        1 MOL      0.090281
     21 C8         -3.4060    4.7890    1.1580 c         1 MOL      0.274933
     22 O5         -4.1320    5.7790    1.4630 o         1 MOL     -0.525064
     23 C9         -0.8810    4.7380    1.1070 c3        1 MOL     -0.317647
     24 C10        -0.9230    6.1340    0.4930 c3        1 MOL      0.172982
     25 C11         0.3560    6.6610   -0.2310 c3        1 MOL     -0.176517
     26 C12         0.0930    8.1200   -0.7750 c3        1 MOL      0.174344
     27 N3          1.2640    8.6220   -1.4780 n4        1 MOL     -0.431909
     28 H8         -1.2500    2.5180    1.9600 hn        1 MOL      0.259282
     29 H9         -2.2070    5.0240    2.9130 h1        1 MOL      0.090798
     30 H10        -0.7980    3.9660    0.3410 hc        1 MOL      0.130125
     31 H11        -0.0010    4.5820    1.7270 hc        1 MOL      0.130125
     32 H12        -1.2300    6.8610    1.2430 hc        1 MOL     -0.007656
     33 H13        -1.7040    6.0590   -0.2690 hc        1 MOL     -0.007656
     34 H14         0.5270    5.9900   -1.0780 hc        1 MOL      0.050373
     35 H15         1.1230    6.7100    0.5290 hc        1 MOL      0.050373
     36 H16        -0.1440    8.7250    0.0980 hx        1 MOL      0.060353
     37 H17        -0.7550    8.1180   -1.4580 hx        1 MOL      0.060353
     38 H18         2.0940    8.2830   -1.0110 hn        1 MOL      0.339184
     39 H19         1.2020    8.3220   -2.4450 hn        1 MOL      0.339184
     40 H20         1.3430    9.6270   -1.4430 hn        1 MOL      0.339184
     41 N4         -3.6400    3.9990    0.0930 n         1 MOL     -0.029816
     42 C13        -4.9570    4.0630   -0.6190 c3        1 MOL     -0.032004
     43 C14        -6.0240    3.1600   -0.1140 c         1 MOL      0.596470
     44 O6         -7.1880    3.4850   -0.2080 o         1 MOL     -0.552448
     45 C15        -4.5720    3.8490   -2.1730 c3        1 MOL     -0.438073
     46 C16        -3.4990    2.8160   -2.4960 c         1 MOL      0.773855
     47 O7         -3.1360    1.9160   -1.6960 o         1 MOL     -0.687987
     48 O8         -2.8530    2.9770   -3.5280 o         1 MOL     -0.687987
     49 H21        -3.0970    3.1600   -0.0570 hn        1 MOL      0.110368
     50 H22        -5.3510    5.0650   -0.4570 h1        1 MOL      0.093348
     51 H23        -4.1420    4.7280   -2.6530 hc        1 MOL      0.122058
     52 H24        -5.4440    3.5700   -2.7770 hc        1 MOL      0.122058
     53 N5         -5.7610    2.0420    0.6230 n         1 MOL     -0.165399
     54 C17        -6.7770    1.0750    0.9990 c3        1 MOL     -0.136694
     55 C18        -7.2540    0.1730   -0.1060 c         1 MOL      0.573405
     56 O9         -8.4390    0.2140   -0.4640 o         1 MOL     -0.573450
     57 H25        -4.7970    1.7700    0.7710 hn        1 MOL      0.065991
     58 H26        -7.6430    1.6120    1.3850 h1        1 MOL      0.085667
     59 H27        -6.4910    0.4080    1.8100 h1        1 MOL      0.085667
     60 N6         -6.3330   -0.5770   -0.7130 n         1 MOL     -0.277204
     61 C19        -6.6130   -1.4160   -1.8570 c3        1 MOL      0.112735
     62 C20        -6.3630   -2.9340   -1.4300 c         1 MOL      0.403898
     63 O10        -6.5380   -3.7640   -2.2500 o         1 MOL     -0.485663
     64 C21        -5.7610   -0.9070   -3.0210 c3        1 MOL     -0.286553
     65 C22        -4.2440   -1.0100   -2.8580 c         1 MOL      0.794656
     66 O11        -3.7050   -1.6000   -1.9140 o         1 MOL     -0.716266
     67 O12        -3.5430   -0.5590   -3.7920 o         1 MOL     -0.716266
     68 H28        -5.4140   -0.6230   -0.3000 hn        1 MOL      0.048789
     69 H29        -7.6580   -1.3540   -2.1460 h1        1 MOL      0.083415
     70 H30        -6.0500    0.1120   -3.2700 hc        1 MOL      0.093159
     71 H31        -6.0030   -1.5700   -3.8520 hc        1 MOL      0.093159
     72 N7         -6.1340   -3.2030   -0.1280 n         1 MOL     -0.381672
     73 C23        -5.7390   -4.5170    0.3900 c3        1 MOL      0.000921
     74 C24        -4.4230   -5.0100   -0.0660 c         1 MOL      0.509907
     75 O13        -4.2030   -6.1800    0.0840 o         1 MOL     -0.587038
     76 H32        -6.0770   -2.4170    0.5040 hn        1 MOL      0.268393
     77 H33        -6.4880   -5.2700    0.1560 h1        1 MOL      0.070458
     78 H34        -5.7670   -4.5190    1.4760 h1        1 MOL      0.070458
     79 N8         -3.5330   -4.1800   -0.5860 n         1 MOL     -0.260741
     80 C25        -2.1480   -4.6500   -0.9180 c3        1 MOL     -0.241266
     81 C26        -1.1100   -3.7120   -0.2740 c         1 MOL      0.633997
     82 O14        -1.1430   -2.5590   -0.4670 o         1 MOL     -0.612242
     83 C27        -2.0140   -4.9000   -2.4800 c3        1 MOL      0.499671
     84 C28        -2.5030   -6.3030   -2.9220 c3        1 MOL     -0.388998
     85 O15        -2.7330   -3.9440   -3.2820 oh        1 MOL     -0.655225
     86 H35        -3.8640   -3.2310   -0.7270 hn        1 MOL      0.271621
     87 H36        -1.9860   -5.6030   -0.4180 h1        1 MOL      0.127936
     88 H37        -0.9530   -4.9390   -2.6970 h1        1 MOL     -0.058433
     89 H38        -2.8100   -3.1120   -2.8230 ho        1 MOL      0.427409
     90 H39        -3.5850   -6.3540   -2.8410 hc        1 MOL      0.102300
     91 H40        -2.2040   -6.4940   -3.9530 hc        1 MOL      0.102300
     92 H41        -2.0690   -7.0310   -2.2390 hc        1 MOL      0.102300
     93 N9         -0.0170   -4.2520    0.3040 n         1 MOL     -0.563365
     94 C29         1.1660   -3.5360    0.8720 c3        1 MOL      0.240515
     95 C30         2.2940   -3.6710   -0.0930 c         1 MOL      0.320302
     96 O16         2.7270   -4.7730   -0.5020 o         1 MOL     -0.525269
     97 C31         1.3590   -4.2060    2.2120 c3        1 MOL     -0.041357
     98 C32         0.3090   -3.7640    3.2460 c3        1 MOL      0.032587
     99 C33         2.7470   -3.7590    2.7820 c3        1 MOL     -0.147369
    100 C34         0.6670   -4.0970    4.7000 c3        1 MOL     -0.091651
    101 H42        -0.0690   -5.2060    0.6160 hn        1 MOL      0.282884
    102 H43         0.8940   -2.4800    0.9270 h1        1 MOL      0.075410
    103 H44         1.4210   -5.2730    2.0030 hc        1 MOL      0.041782
    104 H45        -0.6590   -4.2170    3.0700 hc        1 MOL     -0.003793
    105 H46         0.1710   -2.7220    2.9560 hc        1 MOL     -0.003793
    106 H47         3.5190   -3.9120    2.0300 hc        1 MOL      0.025864
    107 H48         2.7450   -2.7230    3.1340 hc        1 MOL      0.025864
    108 H49         3.0550   -4.3710    3.6280 hc        1 MOL      0.025864
    109 H50         1.5510   -3.5470    5.0050 hc        1 MOL      0.031672
    110 H51        -0.1140   -3.9120    5.4470 hc        1 MOL      0.031672
    111 H52         0.8990   -5.1560    4.8280 hc        1 MOL      0.031672
    112 N10         2.6640   -2.4950   -0.6000 n         1 MOL      0.006718
    113 C35         3.8260   -2.3300   -1.4500 c3        1 MOL     -0.029812
    114 C36         5.0790   -2.1380   -0.6370 c         1 MOL      0.357116
    115 O17         5.0430   -2.0080    0.5950 o         1 MOL     -0.263972
    116 C37         3.5760   -0.9710   -2.3090 c3        1 MOL      0.043851
    117 C38         2.4010   -1.2520   -3.3240 c3        1 MOL     -0.253105
    118 O18         3.4140    0.1510   -1.5160 oh        1 MOL     -0.559490
    119 H53         2.0630   -1.7140   -0.4060 hn        1 MOL      0.136153
    120 H54         3.9890   -3.2540   -2.0140 h1        1 MOL      0.071208
    121 H55         4.4880   -0.7910   -2.8900 h1        1 MOL      0.027258
    122 H56         2.5070    0.1740   -1.2040 ho        1 MOL      0.430698
    123 H57         1.6470   -1.9370   -2.9330 hc        1 MOL      0.083438
    124 H58         1.8470   -0.3440   -3.5320 hc        1 MOL      0.083438
    125 H59         2.7650   -1.6180   -4.2800 hc        1 MOL      0.083438
    126 N11         6.2350   -2.1230   -1.3950 n         1 MOL     -0.396506
    127 C39         7.4770   -1.7790   -0.6600 c3        1 MOL     -0.050426
    128 C40         7.3830   -0.4400    0.0820 c         1 MOL      0.322471
    129 O19         7.8170   -0.3410    1.2650 o         1 MOL     -0.515972
    130 C41         8.6620   -1.6950   -1.5800 c3        1 MOL      0.316860
    131 C42         9.2800   -3.0630   -1.8300 c3        1 MOL     -0.464163
    132 O20         8.3620   -1.0530   -2.7730 oh        1 MOL     -0.676220
    133 H60         6.2960   -2.2030   -2.3930 hn        1 MOL      0.307966
    134 H61         7.7190   -2.5300    0.0830 h1        1 MOL      0.136068
    135 H62         9.3960   -1.0750   -1.0690 h1        1 MOL      0.037986
    136 H63         9.0490   -1.2360   -3.4220 ho        1 MOL      0.427667
    137 H64        10.0640   -3.0870   -2.5910 hc        1 MOL      0.132499
    138 H65         9.6820   -3.2750   -0.8400 hc        1 MOL      0.132499
    139 H66         8.4710   -3.7480   -2.1060 hc        1 MOL      0.132499
    140 N12         6.8460    0.5690   -0.4430 n         1 MOL     -0.274290
    141 C43         6.5090    1.9120    0.1330 c3        1 MOL     -0.037234
    142 C44         5.6050    1.9320    1.3160 c         1 MOL      0.429418
    143 O21         5.6350    2.8890    2.0850 o         1 MOL     -0.551771
    144 C45         6.0020    2.7500   -1.0120 c3        1 MOL     -0.154053
    145 C46         7.1140    2.8390   -2.0400 c3        1 MOL      0.331039
    146 C47         6.6390    3.6490   -3.2730 c3        1 MOL     -0.403877
    147 C48         5.4160    3.1210   -4.0740 c3        1 MOL      0.110962
    148 N13         5.1950    3.6970   -5.5060 n4        1 MOL     -0.319549
    149 H67         6.5470    0.3850   -1.3900 hn        1 MOL      0.311604
    150 H68         7.4220    2.3490    0.5150 h1        1 MOL      0.116768
    151 H69         5.9310    3.7510   -0.5940 hc        1 MOL      0.043626
    152 H70         5.0970    2.3480   -1.4640 hc        1 MOL      0.043626
    153 H71         7.3690    1.8480   -2.4100 hc        1 MOL     -0.037756
    154 H72         8.0020    3.3090   -1.6110 hc        1 MOL     -0.037756
    155 H73         7.5480    3.6910   -3.8770 hc        1 MOL      0.105423
    156 H74         6.4920    4.6830   -2.9480 hc        1 MOL      0.105423
    157 H75         4.5460    3.4220   -3.4970 hx        1 MOL      0.088943
    158 H76         5.4300    2.0240   -4.1320 hx        1 MOL      0.088943
    159 H77         5.3480    4.6880   -5.4400 hn        1 MOL      0.298742
    160 H78         5.9180    3.4560   -6.1710 hn        1 MOL      0.298742
    161 H79         4.2950    3.4340   -5.8980 hn        1 MOL      0.298742
    162 N14         4.8540    0.9000    1.4600 n         1 MOL     -0.024772
    163 C49         3.9430    0.7540    2.5600 c3        1 MOL     -0.064235
    164 C50         4.3200   -0.2210    3.6650 c         1 MOL      0.416233
    165 O22         4.0820    0.0240    4.8520 o         1 MOL     -0.521391
    166 C51         2.5510    0.2080    2.0160 c3        1 MOL      0.212282
    167 C52         1.8900    1.2250    1.1190 c3        1 MOL     -0.238471
    168 C53         0.6460    0.7020    0.4600 c         1 MOL      0.775027
    169 O23         0.8930   -0.1400   -0.4210 o         1 MOL     -0.761173
    170 O24        -0.4830    1.1900    0.7210 o         1 MOL     -0.761173
    171 H80         4.8270    0.2240    0.7170 hn        1 MOL      0.107850
    172 H81         3.7560    1.7480    2.9660 h1        1 MOL      0.087892
    173 H82         1.8940    0.0420    2.8670 hc        1 MOL      0.001131
    174 H83         2.6990   -0.7510    1.5140 hc        1 MOL      0.001131
    175 H84         2.6370    1.5730    0.4020 hc        1 MOL      0.000034
    176 H85         1.5680    2.0980    1.6920 hc        1 MOL      0.000034
    177 N15         5.1280   -1.2090    3.2320 n         1 MOL     -0.043684
    178 C54         6.0270   -1.9000    4.1120 c3        1 MOL     -0.339603
    179 H86         5.4580   -2.5560    4.7700 h1        1 MOL      0.115988
    180 H87         6.7260   -2.4950    3.5230 h1        1 MOL      0.115988
    181 H88         6.5790   -1.1750    4.7100 h1        1 MOL      0.115988
    182 H89         5.1690   -1.4450    2.2490 hn        1 MOL      0.058168
    183 Ca1        -1.7380   -0.1100   -1.1760 Ca        1 MOL      1.759111
    184 O25        -0.5930    1.5330   -3.1420 oh        1 MOL     -0.886422
    185 H90        -0.4200    1.1440   -4.0010 ho        1 MOL      0.399999
    186 H91        -1.2990    2.1580   -3.2980 ho        1 MOL      0.399999
    187 O26        -1.1810   -1.4780   -3.4810 oh        1 MOL     -0.886422
    188 H92        -0.7830   -1.7990   -4.2860 ho        1 MOL      0.399999
    189 H93        -2.1230   -1.4610   -3.6730 ho        1 MOL      0.399999
@<TRIPOS>BOND
     1    1    2 1   
     2    1    4 1   
     3    1    5 1   
     4    1    6 1   
     5    2    3 2   
     6    2    7 1   
     7    7    8 1   
     8    7   15 1   
     9    8    9 1   
    10    8   11 1   
    11    8   16 1   
    12    9   10 2   
    13    9   19 1   
    14   11   12 1   
    15   11   17 1   
    16   11   18 1   
    17   12   13 1   
    18   12   14 1   
    19   19   20 1   
    20   19   28 1   
    21   20   21 1   
    22   20   23 1   
    23   20   29 1   
    24   21   22 2   
    25   21   41 1   
    26   23   24 1   
    27   23   30 1   
    28   23   31 1   
    29   24   25 1   
    30   24   32 1   
    31   24   33 1   
    32   25   26 1   
    33   25   34 1   
    34   25   35 1   
    35   26   27 1   
    36   26   36 1   
    37   26   37 1   
    38   27   38 1   
    39   27   39 1   
    40   27   40 1   
    41   41   42 1   
    42   41   49 1   
    43   42   43 1   
    44   42   45 1   
    45   42   50 1   
    46   43   44 2   
    47   43   53 1   
    48   45   46 1   
    49   45   51 1   
    50   45   52 1   
    51   46   47 1   
    52   46   48 1   
    53   53   54 1   
    54   53   57 1   
    55   54   55 1   
    56   54   58 1   
    57   54   59 1   
    58   55   56 2   
    59   55   60 1   
    60   60   61 1   
    61   60   68 1   
    62   61   62 1   
    63   61   64 1   
    64   61   69 1   
    65   62   63 2   
    66   62   72 1   
    67   64   65 1   
    68   64   70 1   
    69   64   71 1   
    70   65   66 1   
    71   65   67 1   
    72   72   73 1   
    73   72   76 1   
    74   73   74 1   
    75   73   77 1   
    76   73   78 1   
    77   74   75 2   
    78   74   79 1   
    79   79   80 1   
    80   79   86 1   
    81   80   81 1   
    82   80   83 1   
    83   80   87 1   
    84   81   82 2   
    85   81   93 1   
    86   83   84 1   
    87   83   85 1   
    88   83   88 1   
    89   84   90 1   
    90   84   91 1   
    91   84   92 1   
    92   85   89 1   
    93   93   94 1   
    94   93  101 1   
    95   94   95 1   
    96   94   97 1   
    97   94  102 1   
    98   95   96 2   
    99   95  112 1   
   100   97   98 1   
   101   97   99 1   
   102   97  103 1   
   103   98  100 1   
   104   98  104 1   
   105   98  105 1   
   106   99  106 1   
   107   99  107 1   
   108   99  108 1   
   109  100  109 1   
   110  100  110 1   
   111  100  111 1   
   112  112  113 1   
   113  112  119 1   
   114  113  114 1   
   115  113  116 1   
   116  113  120 1   
   117  114  115 2   
   118  114  126 1   
   119  116  117 1   
   120  116  118 1   
   121  116  121 1   
   122  117  123 1   
   123  117  124 1   
   124  117  125 1   
   125  118  122 1   
   126  126  127 1   
   127  126  133 1   
   128  127  128 1   
   129  127  130 1   
   130  127  134 1   
   131  128  129 2   
   132  128  140 1   
   133  130  131 1   
   134  130  132 1   
   135  130  135 1   
   136  131  137 1   
   137  131  138 1   
   138  131  139 1   
   139  132  136 1   
   140  140  141 1   
   141  140  149 1   
   142  141  142 1   
   143  141  144 1   
   144  141  150 1   
   145  142  143 2   
   146  142  162 1   
   147  144  145 1   
   148  144  151 1   
   149  144  152 1   
   150  145  146 1   
   151  145  153 1   
   152  145  154 1   
   153  146  147 1   
   154  146  155 1   
   155  146  156 1   
   156  147  148 1   
   157  147  157 1   
   158  147  158 1   
   159  148  159 1   
   160  148  160 1   
   161  148  161 1   
   162  162  163 1   
   163  162  171 1   
   164  163  164 1   
   165  163  166 1   
   166  163  172 1   
   167  164  165 2   
   168  164  177 1   
   169  166  167 1   
   170  166  173 1   
   171  166  174 1   
   172  167  168 1   
   173  167  175 1   
   174  167  176 1   
   175  168  169 1   
   176  168  170 1   
   177  177  178 1   
   178  177  182 1   
   179  178  179 1   
   180  178  180 1   
   181  178  181 1   
   182  184  185 1   
   183  184  186 1   
   184  187  188 1   
   185  187  189 1   
@<TRIPOS>SUBSTRUCTURE
     1 MOL         1 TEMP              0 ****  ****    0 ROOT
