@<TRIPOS>MOLECULE
MOL
  183   181     1     0     0
SMALL
resp


@<TRIPOS>ATOM
      1 C1         -0.0510    1.2440    6.2520 c3        1 MOL     -0.335117
      2 C2         -0.5030    1.4600    4.7770 c         1 MOL      0.808805
      3 O1          0.2470    2.1470    4.0580 o         1 MOL     -0.634282
      4 H1         -0.8490    0.7500    6.8060 hc        1 MOL      0.071331
      5 H2          0.8430    0.6220    6.2710 hc        1 MOL      0.071331
      6 H3          0.1660    2.2090    6.7100 hc        1 MOL      0.071331
      7 N1         -1.6290    0.9040    4.3690 n         1 MOL     -0.701976
      8 C3         -2.1850    1.0840    2.9960 c3        1 MOL      0.437092
      9 C4         -2.5070    2.6120    2.8000 c         1 MOL      0.427610
     10 O2         -3.1730    3.1560    3.6610 o         1 MOL     -0.566481
     11 C5         -3.4150    0.1430    2.9560 c3        1 MOL     -0.466151
     12 C6         -4.1620    0.1620    1.6490 c         1 MOL      0.969173
     13 O3         -5.1880   -0.5380    1.5770 o         1 MOL     -0.672151
     14 O4         -3.7310    0.8570    0.7240 o         1 MOL     -0.672151
     15 H4         -2.2320    0.4590    5.0440 hn        1 MOL      0.337345
     16 H5         -1.4890    0.7620    2.2210 h1        1 MOL     -0.111471
     17 H6         -4.1230    0.4680    3.7270 hc        1 MOL      0.080644
     18 H7         -3.0480   -0.8510    3.2050 hc        1 MOL      0.080644
     19 N2         -2.1350    3.2200    1.6640 n         1 MOL     -0.257191
     20 C7         -2.2360    4.7230    1.3890 c3        1 MOL     -0.064149
     21 C8         -3.4580    5.0580    0.6390 c         1 MOL      0.548918
     22 O5         -3.9920    6.1270    0.8500 o         1 MOL     -0.593914
     23 C9         -0.9870    5.3240    0.7270 c3        1 MOL      0.259646
     24 C10         0.2610    4.9510    1.5900 c3        1 MOL     -0.063724
     25 C11        -0.9470    6.8460    0.3650 c3        1 MOL     -0.360651
     26 C12         1.5690    5.3570    0.8370 c3        1 MOL     -0.206523
     27 H8         -1.5880    2.7390    0.9650 hn        1 MOL      0.200970
     28 H9         -2.2230    5.1670    2.3750 h1        1 MOL      0.058068
     29 H10        -0.8730    4.8070   -0.2290 hc        1 MOL     -0.016545
     30 H11         0.3680    3.8920    1.8180 hc        1 MOL      0.036290
     31 H12         0.2240    5.4600    2.5570 hc        1 MOL      0.036290
     32 H13        -0.0240    7.1840   -0.0930 hc        1 MOL      0.080016
     33 H14        -1.6960    7.1320   -0.3680 hc        1 MOL      0.080016
     34 H15        -1.1690    7.3820    1.2890 hc        1 MOL      0.080016
     35 H16         2.4730    4.9940    1.3270 hc        1 MOL      0.053347
     36 H17         1.5620    4.9450   -0.1730 hc        1 MOL      0.053347
     37 H18         1.6850    6.4320    0.7020 hc        1 MOL      0.053347
     38 N3         -3.8790    4.1540   -0.2620 n         1 MOL     -0.293899
     39 C13        -5.0070    4.3620   -1.1540 c3        1 MOL      0.016619
     40 C14        -6.3700    3.7080   -0.7940 c         1 MOL      0.443060
     41 O6         -7.3720    4.3290   -0.9750 o         1 MOL     -0.561974
     42 C15        -4.6820    4.0250   -2.6330 c3        1 MOL     -0.214246
     43 C16        -3.9800    2.7220   -3.0220 c         1 MOL      0.726659
     44 O7         -3.7230    2.6330   -4.2220 o         1 MOL     -0.698438
     45 O8         -3.7480    1.8120   -2.1900 o         1 MOL     -0.698438
     46 H19        -3.3980    3.2650   -0.3090 hn        1 MOL      0.179485
     47 H20        -5.1650    5.4400   -1.1690 h1        1 MOL      0.067335
     48 H21        -4.0350    4.8290   -2.9810 hc        1 MOL      0.053273
     49 H22        -5.6240    4.1680   -3.1560 hc        1 MOL      0.053273
     50 N4         -6.2720    2.4800   -0.2880 n         1 MOL      0.043987
     51 C17        -7.3510    1.7930    0.4290 c3        1 MOL     -0.063074
     52 C18        -7.9620    0.6280   -0.3710 c         1 MOL      0.436625
     53 O9         -9.1110    0.7140   -0.9390 o         1 MOL     -0.570773
     54 H23        -5.4140    1.9710   -0.1360 hn        1 MOL     -0.053317
     55 H24        -8.1510    2.4650    0.7620 h1        1 MOL      0.036568
     56 H25        -6.7820    1.4260    1.2870 h1        1 MOL      0.036568
     57 N5         -7.2440   -0.5150   -0.4900 n         1 MOL     -0.300313
     58 C19        -7.7320   -1.7710   -1.1540 c3        1 MOL      0.035519
     59 C20        -7.4100   -2.9590   -0.2190 c         1 MOL      0.385867
     60 O10        -7.6080   -4.1850   -0.5560 o         1 MOL     -0.517613
     61 C21        -6.9660   -1.8750   -2.5400 c3        1 MOL     -0.049351
     62 C22        -5.4380   -1.7510   -2.5160 c         1 MOL      0.650316
     63 O11        -4.7960   -1.9040   -3.6140 o         1 MOL     -0.705933
     64 O12        -4.7870   -1.4450   -1.4670 o         1 MOL     -0.705933
     65 H26        -6.2960   -0.5140   -0.1280 hn        1 MOL      0.213892
     66 H27        -8.8070   -1.7340   -1.3440 h1        1 MOL      0.083486
     67 H28        -7.4020   -1.1400   -3.2200 hc        1 MOL      0.021994
     68 H29        -7.1910   -2.8580   -2.9410 hc        1 MOL      0.021994
     69 N6         -6.9910   -2.7110    1.0470 n         1 MOL     -0.284211
     70 C23        -6.6210   -3.7220    2.0060 c3        1 MOL     -0.015925
     71 C24        -5.4440   -4.5470    1.5690 c         1 MOL      0.466542
     72 O13        -5.4330   -5.7710    1.7410 o         1 MOL     -0.575649
     73 H30        -6.7040   -1.7750    1.2830 hn        1 MOL      0.196911
     74 H31        -7.4220   -4.4460    2.1930 h1        1 MOL      0.051332
     75 H32        -6.3780   -3.2620    2.9580 h1        1 MOL      0.051332
     76 N7         -4.3770   -3.8940    1.1000 n         1 MOL     -0.128441
     77 C25        -3.1220   -4.4300    0.7020 c3        1 MOL      0.048932
     78 C26        -1.9970   -3.3970    0.8750 c         1 MOL      0.641590
     79 O14        -2.3800   -2.2360    0.7080 o         1 MOL     -0.692800
     80 C27        -3.0750   -5.3380   -0.5690 c3        1 MOL      0.023918
     81 C28        -3.4080   -4.6990   -1.9040 c3        1 MOL     -0.107163
     82 C29        -2.2660   -3.8910   -2.5080 c         1 MOL      0.501224
     83 N8         -1.4840   -4.4330   -3.4350 n         1 MOL     -0.699858
     84 O15        -1.8610   -2.7820   -2.1330 o         1 MOL     -0.474827
     85 H33        -4.4490   -2.8930    0.9970 hn        1 MOL      0.097759
     86 H34        -2.8310   -5.0960    1.5100 h1        1 MOL     -0.027278
     87 H35        -3.7700   -6.1720   -0.4000 hc        1 MOL     -0.003281
     88 H36        -2.0580   -5.6950   -0.6800 hc        1 MOL     -0.003281
     89 H37        -4.3320   -4.1060   -1.8860 hc        1 MOL      0.060311
     90 H38        -3.5950   -5.5240   -2.5880 hc        1 MOL      0.060311
     91 H39        -1.6430   -5.4120   -3.6240 hn        1 MOL      0.323984
     92 H40        -0.5710   -4.0530   -3.6270 hn        1 MOL      0.323984
     93 N9         -0.7540   -3.8120    1.1780 n         1 MOL     -0.479518
     94 C30         0.3520   -2.8290    1.5340 c3        1 MOL     -0.115784
     95 C31         1.6460   -3.1730    0.7480 c         1 MOL      0.470250
     96 O16         2.3000   -4.2510    0.9850 o         1 MOL     -0.592539
     97 C32         0.6780   -3.0720    3.0380 c3        1 MOL      0.330553
     98 C33         1.9280   -2.2030    3.5210 c3        1 MOL     -0.247188
     99 C34        -0.5170   -2.7910    3.9570 c3        1 MOL     -0.247188
    100 H41        -0.6000   -4.8010    1.2360 hn        1 MOL      0.307167
    101 H42        -0.0060   -1.8250    1.3380 h1        1 MOL      0.297002
    102 H43         1.0010   -4.0980    3.2620 hc        1 MOL     -0.055471
    103 H44         2.0360   -2.3770    4.5900 hc        1 MOL      0.040530
    104 H45         2.8400   -2.6230    3.0900 hc        1 MOL      0.040530
    105 H46         1.7320   -1.1840    3.1900 hc        1 MOL      0.040530
    106 H47        -0.8390   -1.7520    3.8390 hc        1 MOL      0.040530
    107 H48        -1.3330   -3.4890    3.8060 hc        1 MOL      0.040530
    108 H49        -0.1430   -2.8510    4.9820 hc        1 MOL      0.040530
    109 N10         1.9380   -2.3790   -0.2320 n         1 MOL     -0.165332
    110 C35         3.1300   -2.4490   -1.1380 c3        1 MOL      0.031361
    111 C36         4.4080   -2.1400   -0.3080 c         1 MOL      0.458221
    112 O17         4.3910   -1.5580    0.7870 o         1 MOL     -0.319365
    113 C37         2.9000   -1.5220   -2.3160 c3        1 MOL     -0.442054
    114 C38         1.7750   -2.0290   -3.1510 c         1 MOL      0.814312
    115 N11         1.0590   -1.1060   -3.6290 n         1 MOL     -0.846048
    116 O18         1.5410   -3.1800   -3.3720 o         1 MOL     -0.595166
    117 H50         1.3360   -1.5750   -0.2550 hn        1 MOL      0.048427
    118 H51         3.1910   -3.4810   -1.4970 h1        1 MOL      0.081250
    119 H52         3.7790   -1.6840   -2.9570 hc        1 MOL      0.137242
    120 H53         2.7580   -0.5070   -1.9490 hc        1 MOL      0.137242
    121 H54         1.2370   -0.1450   -3.3630 hn        1 MOL      0.387165
    122 H55         0.0800   -1.3460   -3.7070 hn        1 MOL      0.387165
    123 N12         5.5600   -2.5230   -0.8460 n         1 MOL     -0.581625
    124 C39         6.8790   -1.9860   -0.3170 c3        1 MOL      0.327379
    125 C40         6.9340   -0.4910   -0.2420 c         1 MOL      0.424711
    126 O19         7.2890    0.0480    0.8380 o         1 MOL     -0.493392
    127 C41         8.0140   -2.6530   -1.0450 c3        1 MOL     -0.139363
    128 C42         9.3630   -2.2530   -0.5770 ca        1 MOL     -0.003728
    129 C43         9.9640   -2.7970    0.5470 ca        1 MOL     -0.151397
    130 C44        10.0300   -1.1680   -1.2490 ca        1 MOL     -0.151397
    131 C45        11.2260   -2.2570    0.9900 ca        1 MOL     -0.294664
    132 C46        11.3050   -0.6910   -0.8120 ca        1 MOL     -0.294664
    133 C47        11.9060   -1.1880    0.3130 ca        1 MOL      0.426689
    134 O20        13.0140   -0.5860    0.7090 oh        1 MOL     -0.543163
    135 H56         5.5640   -2.9170   -1.7820 hn        1 MOL      0.299786
    136 H57         6.9010   -2.3820    0.7030 h1        1 MOL      0.032090
    137 H58         7.9990   -2.3510   -2.0950 hc        1 MOL      0.045548
    138 H59         8.0020   -3.7400   -0.9390 hc        1 MOL      0.045548
    139 H60         9.5500   -3.7010    0.9610 ha        1 MOL      0.144366
    140 H61         9.4970   -0.6740   -2.0520 ha        1 MOL      0.144366
    141 H62        11.6710   -2.7630    1.8300 ha        1 MOL      0.142234
    142 H63        11.7610    0.1560   -1.3010 ha        1 MOL      0.142234
    143 H64        13.1280    0.2610    0.2620 ho        1 MOL      0.395478
    144 N13         6.3930    0.2640   -1.2600 n         1 MOL     -0.357253
    145 C48         6.2750    1.7250   -1.3560 c3        1 MOL      0.088150
    146 C49         5.3470    2.2430   -0.2290 c         1 MOL      0.394990
    147 O21         5.5330    3.3870    0.1720 o         1 MOL     -0.530394
    148 C50         5.8200    2.0450   -2.7800 c3        1 MOL      0.032977
    149 C51         6.2430    3.4640   -3.2850 c3        1 MOL     -0.181843
    150 C52         5.3510    3.8340   -4.5170 c         1 MOL      0.697306
    151 O22         4.4340    4.6940   -4.4320 o         1 MOL     -0.726375
    152 O23         5.5620    3.1680   -5.5630 o         1 MOL     -0.726375
    153 H65         6.2350   -0.2560   -2.1080 hn        1 MOL      0.224675
    154 H66         7.2130    2.2590   -1.2100 h1        1 MOL      0.040448
    155 H67         4.7270    2.0160   -2.7470 hc        1 MOL     -0.013053
    156 H68         6.1650    1.2550   -3.4450 hc        1 MOL     -0.013053
    157 H69         7.2930    3.3840   -3.5690 hc        1 MOL      0.009916
    158 H70         5.9770    4.2230   -2.5550 hc        1 MOL      0.009916
    159 N14         4.4690    1.4410    0.3700 n         1 MOL      0.041574
    160 C53         3.5540    1.7970    1.5010 c3        1 MOL      0.007460
    161 C54         4.2020    1.4960    2.7940 c         1 MOL      0.344436
    162 O24         4.4810    2.3840    3.6090 o         1 MOL     -0.508903
    163 C55         2.2250    1.0960    1.2630 c3        1 MOL      0.089370
    164 C56         1.4730    1.5820    0.0320 c3        1 MOL     -0.209323
    165 C57         0.0920    0.8840   -0.2340 c         1 MOL      0.650038
    166 O25        -0.9610    1.5700   -0.1760 o         1 MOL     -0.687286
    167 O26         0.0040   -0.3370   -0.5350 o         1 MOL     -0.687286
    168 H71         4.4670    0.4910    0.0210 hn        1 MOL     -0.083251
    169 H72         3.3150    2.8600    1.4210 h1        1 MOL      0.090432
    170 H73         1.6020    1.1390    2.1530 hc        1 MOL      0.028135
    171 H74         2.4540    0.0600    0.9890 hc        1 MOL      0.028135
    172 H75         2.1250    1.5270   -0.8380 hc        1 MOL      0.073844
    173 H76         1.3200    2.6590    0.1970 hc        1 MOL      0.073844
    174 N15         4.7850    0.2680    3.0040 n         1 MOL     -0.078200
    175 C58         5.5930   -0.1560    4.1580 c3        1 MOL     -0.210971
    176 H77         6.6160   -0.3470    3.8330 h1        1 MOL      0.079266
    177 H78         5.5930    0.6310    4.9120 h1        1 MOL      0.079266
    178 H79         5.1700   -1.0660    4.5830 h1        1 MOL      0.079266
    179 H80         4.5560   -0.4990    2.3950 hn        1 MOL      0.105666
    180 Ca1        -2.5600   -0.2820   -1.2480 Ca        1 MOL      1.733158
    181 O27        -1.8270   -0.2710   -3.8120 oh        1 MOL     -0.878510
    182 H81        -2.0710   -0.9370   -4.4590 ho        1 MOL      0.433076
    183 H82        -1.4530    0.4370   -4.3360 ho        1 MOL      0.433076
@<TRIPOS>BOND
     1    1    2 1   
     2    1    4 1   
     3    1    5 1   
     4    1    6 1   
     5    2    3 2   
     6    2    7 1   
     7    7    8 1   
     8    7   15 1   
     9    8    9 1   
    10    8   11 1   
    11    8   16 1   
    12    9   10 2   
    13    9   19 1   
    14   11   12 1   
    15   11   17 1   
    16   11   18 1   
    17   12   13 1   
    18   12   14 1   
    19   19   20 1   
    20   19   27 1   
    21   20   21 1   
    22   20   23 1   
    23   20   28 1   
    24   21   22 2   
    25   21   38 1   
    26   23   24 1   
    27   23   25 1   
    28   23   29 1   
    29   24   26 1   
    30   24   30 1   
    31   24   31 1   
    32   25   32 1   
    33   25   33 1   
    34   25   34 1   
    35   26   35 1   
    36   26   36 1   
    37   26   37 1   
    38   38   39 1   
    39   38   46 1   
    40   39   40 1   
    41   39   42 1   
    42   39   47 1   
    43   40   41 2   
    44   40   50 1   
    45   42   43 1   
    46   42   48 1   
    47   42   49 1   
    48   43   44 1   
    49   43   45 1   
    50   50   51 1   
    51   50   54 1   
    52   51   52 1   
    53   51   55 1   
    54   51   56 1   
    55   52   53 2   
    56   52   57 1   
    57   57   58 1   
    58   57   65 1   
    59   58   59 1   
    60   58   61 1   
    61   58   66 1   
    62   59   60 2   
    63   59   69 1   
    64   61   62 1   
    65   61   67 1   
    66   61   68 1   
    67   62   63 1   
    68   62   64 1   
    69   69   70 1   
    70   69   73 1   
    71   70   71 1   
    72   70   74 1   
    73   70   75 1   
    74   71   72 2   
    75   71   76 1   
    76   76   77 1   
    77   76   85 1   
    78   77   78 1   
    79   77   80 1   
    80   77   86 1   
    81   78   79 2   
    82   78   93 1   
    83   80   81 1   
    84   80   87 1   
    85   80   88 1   
    86   81   82 1   
    87   81   89 1   
    88   81   90 1   
    89   82   83 1   
    90   82   84 2   
    91   83   91 1   
    92   83   92 1   
    93   93   94 1   
    94   93  100 1   
    95   94   95 1   
    96   94   97 1   
    97   94  101 1   
    98   95   96 2   
    99   95  109 1   
   100   97   98 1   
   101   97   99 1   
   102   97  102 1   
   103   98  103 1   
   104   98  104 1   
   105   98  105 1   
   106   99  106 1   
   107   99  107 1   
   108   99  108 1   
   109  109  110 1   
   110  109  117 1   
   111  110  111 1   
   112  110  113 1   
   113  110  118 1   
   114  111  112 2   
   115  111  123 1   
   116  113  114 1   
   117  113  119 1   
   118  113  120 1   
   119  114  115 1   
   120  114  116 2   
   121  115  121 1   
   122  115  122 1   
   123  123  124 1   
   124  123  135 1   
   125  124  125 1   
   126  124  127 1   
   127  124  136 1   
   128  125  126 2   
   129  125  144 1   
   130  127  128 1   
   131  127  137 1   
   132  127  138 1   
   133  128  129 ar  
   134  128  130 ar  
   135  129  131 ar  
   136  129  139 1   
   137  130  132 ar  
   138  130  140 1   
   139  131  133 ar  
   140  131  141 1   
   141  132  133 ar  
   142  132  142 1   
   143  133  134 1   
   144  134  143 1   
   145  144  145 1   
   146  144  153 1   
   147  145  146 1   
   148  145  148 1   
   149  145  154 1   
   150  146  147 2   
   151  146  159 1   
   152  148  149 1   
   153  148  155 1   
   154  148  156 1   
   155  149  150 1   
   156  149  157 1   
   157  149  158 1   
   158  150  151 1   
   159  150  152 1   
   160  159  160 1   
   161  159  168 1   
   162  160  161 1   
   163  160  163 1   
   164  160  169 1   
   165  161  162 2   
   166  161  174 1   
   167  163  164 1   
   168  163  170 1   
   169  163  171 1   
   170  164  165 1   
   171  164  172 1   
   172  164  173 1   
   173  165  166 1   
   174  165  167 1   
   175  174  175 1   
   176  174  179 1   
   177  175  176 1   
   178  175  177 1   
   179  175  178 1   
   180  181  182 1   
   181  181  183 1   
@<TRIPOS>SUBSTRUCTURE
     1 MOL         1 TEMP              0 ****  ****    0 ROOT
