@<TRIPOS>MOLECULE
MOL
  172   171     1     0     0
SMALL
resp


@<TRIPOS>ATOM
      1 C1         -0.1410    3.6240    5.4230 c3        1 MOL     -0.389394
      2 C2         -0.6050    3.3250    4.0020 c         1 MOL      0.656941
      3 O1          0.1270    3.6490    3.0970 o         1 MOL     -0.566715
      4 H1          0.5150    4.4930    5.4140 hc        1 MOL      0.095861
      5 H2         -1.0070    3.8290    6.0520 hc        1 MOL      0.095861
      6 H3          0.4000    2.7630    5.8180 hc        1 MOL      0.095861
      7 N1         -1.7260    2.6720    3.8040 n         1 MOL     -0.474428
      8 C3         -2.2600    2.2470    2.5220 c3        1 MOL      0.149706
      9 C4         -2.9770    3.4320    1.9000 c         1 MOL      0.375590
     10 O2         -4.1960    3.6710    2.0610 o         1 MOL     -0.499735
     11 C5         -3.2590    1.1090    2.8070 c3        1 MOL     -0.103016
     12 C6         -4.0010    0.4390    1.6420 c         1 MOL      0.624570
     13 O3         -3.5310    0.5180    0.5020 o         1 MOL     -0.687740
     14 O4         -5.0720   -0.2370    1.8600 o         1 MOL     -0.687740
     15 H4         -2.2380    2.4210    4.6310 hn        1 MOL      0.271494
     16 H5         -1.5310    1.7870    1.8480 h1        1 MOL      0.069954
     17 H6         -4.0330    1.3980    3.5160 hc        1 MOL      0.026824
     18 H7         -2.6310    0.3660    3.2960 hc        1 MOL      0.026824
     19 N2         -2.2200    4.1810    1.0930 n         1 MOL     -0.296755
     20 C7         -2.6120    5.4710    0.5460 c3        1 MOL      0.085829
     21 C8         -3.6050    5.3760   -0.5870 c         1 MOL      0.450987
     22 O5         -4.4170    6.2830   -0.7770 o         1 MOL     -0.595091
     23 C9         -1.4160    6.3610    0.1880 c3        1 MOL     -0.344783
     24 H8         -1.2320    3.9910    0.9820 hn        1 MOL      0.295510
     25 H9         -3.1910    5.9950    1.3140 h1        1 MOL      0.064962
     26 H10        -0.8020    5.8030   -0.5130 hc        1 MOL      0.097228
     27 H11        -1.7910    7.2050   -0.3960 hc        1 MOL      0.097228
     28 H12        -0.8070    6.7170    1.0210 hc        1 MOL      0.097228
     29 N3         -3.7100    4.2770   -1.2970 n         1 MOL     -0.201121
     30 C10        -4.8630    3.9650   -2.2640 c3        1 MOL     -0.115833
     31 C11        -5.9920    3.1330   -1.5370 c         1 MOL      0.429975
     32 O6         -7.0330    2.9510   -2.1850 o         1 MOL     -0.566485
     33 C12        -4.3150    3.2790   -3.4930 c3        1 MOL     -0.038404
     34 C13        -3.1930    2.2790   -3.3260 c         1 MOL      0.571112
     35 O7         -3.4280    1.3040   -2.6170 o         1 MOL     -0.668371
     36 O8         -2.1190    2.5050   -3.9800 o         1 MOL     -0.668371
     37 H13        -2.9450    3.6260   -1.1690 hn        1 MOL      0.220610
     38 H14        -5.3190    4.9010   -2.5840 h1        1 MOL      0.128292
     39 H15        -4.0910    4.0360   -4.2360 hc        1 MOL      0.021832
     40 H16        -5.1680    2.7480   -3.9260 hc        1 MOL      0.021832
     41 N4         -5.7590    2.5340   -0.3920 n         1 MOL      0.072341
     42 C14        -6.8210    1.8870    0.3460 c3        1 MOL     -0.213911
     43 C15        -7.3420    0.5930   -0.3010 c         1 MOL      0.537995
     44 O9         -8.5390    0.2980   -0.1850 o         1 MOL     -0.591298
     45 H17        -4.8460    2.5150    0.0480 hn        1 MOL     -0.036750
     46 H18        -7.6380    2.6020    0.3640 h1        1 MOL      0.102233
     47 H19        -6.5650    1.5750    1.3570 h1        1 MOL      0.102233
     48 N5         -6.4360   -0.1490   -1.0140 n         1 MOL     -0.167786
     49 C16        -6.7540   -1.4060   -1.5850 c3        1 MOL     -0.088793
     50 C17        -6.7180   -2.6010   -0.6070 c         1 MOL      0.462989
     51 O10        -6.9010   -3.7840   -1.0000 o         1 MOL     -0.586790
     52 C18        -5.9330   -1.5880   -2.8830 c3        1 MOL     -0.194563
     53 C19        -4.4820   -1.9600   -2.6560 c         1 MOL      0.509054
     54 N6         -3.9560   -2.6240   -3.5810 n         1 MOL     -0.630646
     55 O11        -3.8470   -1.7460   -1.6260 o         1 MOL     -0.484386
     56 H20        -5.5430    0.3080   -1.0910 hn        1 MOL      0.135203
     57 H21        -7.7850   -1.3610   -1.9290 h1        1 MOL      0.105786
     58 H22        -5.9710   -0.6830   -3.4770 hc        1 MOL      0.085379
     59 H23        -6.2920   -2.4220   -3.4970 hc        1 MOL      0.085379
     60 H24        -4.3930   -2.6000   -4.4960 hn        1 MOL      0.323099
     61 H25        -2.9930   -2.8440   -3.4040 hn        1 MOL      0.323099
     62 N7         -6.4410   -2.4300    0.6520 n         1 MOL     -0.197253
     63 C20        -6.4400   -3.4150    1.7020 c3        1 MOL     -0.239765
     64 C21        -5.1140   -4.1110    1.9020 c         1 MOL      0.549764
     65 O12        -5.0020   -4.9900    2.7520 o         1 MOL     -0.595214
     66 H26        -6.1570   -1.5100    0.9690 hn        1 MOL      0.264439
     67 H27        -7.1870   -4.1590    1.4160 h1        1 MOL      0.119745
     68 H28        -6.6670   -2.9780    2.6710 h1        1 MOL      0.119745
     69 N8         -4.1030   -3.8040    1.0800 n         1 MOL     -0.175517
     70 C22        -2.7250   -4.4180    1.1240 c3        1 MOL     -0.054758
     71 C23        -1.6230   -3.2860    1.0970 c         1 MOL      0.404164
     72 O13        -1.9160   -2.1550    0.6910 o         1 MOL     -0.437913
     73 C24        -2.4200   -5.4430   -0.0290 c3        1 MOL      0.335437
     74 C25        -3.6220   -6.4190   -0.2280 c3        1 MOL     -0.251101
     75 O14        -2.2190   -4.8470   -1.3170 oh        1 MOL     -0.651935
     76 H29        -4.1420   -2.9980    0.4840 hn        1 MOL      0.204007
     77 H30        -2.5930   -4.9820    2.0470 h1        1 MOL      0.052197
     78 H31        -1.5830   -6.0730    0.2840 h1        1 MOL     -0.000092
     79 H32        -2.5810   -5.3280   -2.0660 ho        1 MOL      0.407848
     80 H33        -3.3370   -7.2610   -0.8670 hc        1 MOL      0.060994
     81 H34        -3.9060   -6.9600    0.6710 hc        1 MOL      0.060994
     82 H35        -4.4880   -5.9670   -0.7250 hc        1 MOL      0.060994
     83 N9         -0.4430   -3.6740    1.5540 n         1 MOL     -0.297769
     84 C26         0.7870   -2.9300    1.6510 c3        1 MOL      0.066848
     85 C27         1.6440   -3.1500    0.3340 c         1 MOL      0.432617
     86 O15         2.0730   -4.2800    0.1060 o         1 MOL     -0.563962
     87 C28         1.5560   -3.0220    2.9710 c3        1 MOL      0.048659
     88 C29         0.8230   -2.4750    4.1790 c3        1 MOL      0.026607
     89 C30         2.9810   -2.3700    2.8140 c3        1 MOL     -0.029178
     90 C31         1.4660   -3.0230    5.4420 c3        1 MOL     -0.097932
     91 H36        -0.4490   -4.6030    1.9370 hn        1 MOL      0.226752
     92 H37         0.4290   -1.9070    1.5770 h1        1 MOL      0.032581
     93 H38         1.6980   -4.0920    3.1440 hc        1 MOL     -0.005574
     94 H39        -0.2240   -2.7390    4.1390 hc        1 MOL      0.004538
     95 H40         0.7910   -1.3790    4.1380 hc        1 MOL      0.004538
     96 H41         2.8890   -1.3050    2.6170 hc        1 MOL     -0.011717
     97 H42         3.6250   -2.5060    3.6880 hc        1 MOL     -0.011717
     98 H43         3.5580   -2.8230    2.0120 hc        1 MOL     -0.011717
     99 H44         0.8750   -2.9900    6.3530 hc        1 MOL      0.016149
    100 H45         1.6950   -4.0920    5.3460 hc        1 MOL      0.016149
    101 H46         2.3780   -2.4730    5.6460 hc        1 MOL      0.016149
    102 N10         1.8530   -2.0170   -0.3240 n         1 MOL     -0.168484
    103 C32         2.9000   -1.9730   -1.3760 c3        1 MOL      0.139727
    104 C33         4.3110   -1.5850   -0.8440 c         1 MOL      0.490300
    105 O16         4.3900   -1.1230    0.2750 o         1 MOL     -0.330505
    106 C34         2.5270   -1.0140   -2.4830 c3        1 MOL     -0.420548
    107 C35         1.1220   -1.0900   -3.0070 c         1 MOL      0.936590
    108 O17         0.7390   -1.9980   -3.7600 o         1 MOL     -0.769405
    109 O18         0.2450   -0.2540   -2.7500 o         1 MOL     -0.769405
    110 H47         1.4660   -1.1680    0.0430 hn        1 MOL      0.089434
    111 H48         2.9060   -2.9690   -1.8310 h1        1 MOL      0.034512
    112 H49         3.2180   -1.0940   -3.3220 hc        1 MOL      0.083659
    113 H50         2.6540    0.0130   -2.1340 hc        1 MOL      0.083659
    114 N11         5.3950   -1.8030   -1.5860 n         1 MOL     -0.708044
    115 C36         6.7470   -1.4570   -1.0390 c3        1 MOL      0.283166
    116 C37         6.8580    0.0590   -0.6740 c         1 MOL      0.420377
    117 O19         7.3490    0.3720    0.4160 o         1 MOL     -0.523750
    118 C38         7.8200   -1.8590   -1.9920 c3        1 MOL     -0.121282
    119 C39         9.2920   -1.3800   -1.7650 ca        1 MOL     -0.011157
    120 C40         9.9060   -1.7840   -0.5730 ca        1 MOL     -0.103505
    121 C41         9.8600   -0.5060   -2.6650 ca        1 MOL     -0.103505
    122 C42        11.1970   -1.3750   -0.3360 ca        1 MOL     -0.105748
    123 C43        11.1240   -0.0450   -2.3440 ca        1 MOL     -0.105748
    124 C44        11.8530   -0.4240   -1.1770 ca        1 MOL     -0.144390
    125 H51         5.3210   -2.2960   -2.4710 hn        1 MOL      0.371111
    126 H52         7.0190   -1.9080   -0.0860 h1        1 MOL      0.049372
    127 H53         7.5080   -1.5130   -2.9800 hc        1 MOL      0.043138
    128 H54         7.7800   -2.9150   -2.2330 hc        1 MOL      0.043138
    129 H55         9.3340   -2.3900    0.1190 ha        1 MOL      0.114153
    130 H56         9.4510   -0.2390   -3.6280 ha        1 MOL      0.114153
    131 H57        11.6010   -1.6530    0.6190 ha        1 MOL      0.100275
    132 H58        11.5830    0.6020   -3.0680 ha        1 MOL      0.100275
    133 H59        12.8230   -0.0500   -0.8850 ha        1 MOL      0.125393
    134 N12         6.2920    1.0750   -1.3640 n         1 MOL     -0.066786
    135 C45         6.3540    2.4690   -0.8650 c3        1 MOL      0.076420
    136 C46         5.4820    2.7500    0.3740 c         1 MOL      0.190242
    137 O20         5.7860    3.7670    1.0730 o         1 MOL     -0.503723
    138 C47         5.9630    3.2930   -2.0540 c3        1 MOL     -0.175272
    139 C48         6.3910    2.4660   -3.2480 c3        1 MOL      0.181633
    140 C49         6.0710    1.0770   -2.7700 c3        1 MOL     -0.139170
    141 H60         7.3960    2.6390   -0.5860 h1        1 MOL      0.079897
    142 H61         4.8970    3.4460   -2.2080 hc        1 MOL      0.068871
    143 H62         6.5040    4.2350   -2.0960 hc        1 MOL      0.068871
    144 H63         5.9540    2.7010   -4.2140 hc        1 MOL     -0.031027
    145 H64         7.4740    2.5680   -3.3220 hc        1 MOL     -0.031027
    146 H65         5.0060    0.8980   -2.8950 h1        1 MOL      0.042320
    147 H66         6.7180    0.3640   -3.2730 h1        1 MOL      0.042320
    148 N13         4.5280    1.9310    0.6990 n         1 MOL     -0.065615
    149 C50         3.7490    1.9730    1.9130 c3        1 MOL      0.036269
    150 C51         4.5220    1.2180    3.0550 c         1 MOL      0.370220
    151 O21         4.5530    1.7180    4.1990 o         1 MOL     -0.557956
    152 C52         2.3630    1.4180    1.6140 c3        1 MOL      0.014040
    153 C53         1.7770    2.0780    0.3030 c3        1 MOL     -0.286530
    154 C54         0.4100    1.5680    0.0210 c         1 MOL      0.690621
    155 O22         0.0820    0.4250    0.4400 o         1 MOL     -0.715120
    156 O23        -0.4430    2.1760   -0.6770 o         1 MOL     -0.715120
    157 H67         4.2110    1.2580    0.0150 hn        1 MOL      0.227487
    158 H68         3.6100    2.9950    2.2790 h1        1 MOL      0.083768
    159 H69         1.6990    1.6110    2.4590 hc        1 MOL      0.049250
    160 H70         2.4850    0.3570    1.3880 hc        1 MOL      0.049250
    161 H71         2.4830    1.7810   -0.4830 hc        1 MOL      0.075626
    162 H72         1.7140    3.1260    0.5910 hc        1 MOL      0.075626
    163 N14         5.3550    0.1550    2.8100 n         1 MOL      0.098786
    164 C55         6.4260   -0.3070    3.7030 c3        1 MOL     -0.292719
    165 H73         6.9860    0.5530    4.0730 h1        1 MOL      0.098317
    166 H74         5.9920   -0.8470    4.5440 h1        1 MOL      0.098317
    167 H75         7.0980   -0.9680    3.1540 h1        1 MOL      0.098317
    168 H76         5.2200   -0.1620    1.8670 hn        1 MOL     -0.037819
    169 Ca1        -1.7720   -0.0880   -1.2300 Ca        1 MOL      1.720139
    170 O24        -1.3730   -2.5030   -2.1930 oh        1 MOL     -0.956062
    171 H77        -1.7200   -3.2730   -1.7460 ho        1 MOL      0.441794
    172 H78        -0.8560   -2.8650   -2.9200 ho        1 MOL      0.441794
@<TRIPOS>BOND
     1    1    2 1   
     2    1    4 1   
     3    1    5 1   
     4    1    6 1   
     5    2    3 2   
     6    2    7 1   
     7    7    8 1   
     8    7   15 1   
     9    8    9 1   
    10    8   11 1   
    11    8   16 1   
    12    9   10 2   
    13    9   19 1   
    14   11   12 1   
    15   11   17 1   
    16   11   18 1   
    17   12   13 1   
    18   12   14 1   
    19   19   20 1   
    20   19   24 1   
    21   20   21 1   
    22   20   23 1   
    23   20   25 1   
    24   21   22 2   
    25   21   29 1   
    26   23   26 1   
    27   23   27 1   
    28   23   28 1   
    29   29   30 1   
    30   29   37 1   
    31   30   31 1   
    32   30   33 1   
    33   30   38 1   
    34   31   32 2   
    35   31   41 1   
    36   33   34 1   
    37   33   39 1   
    38   33   40 1   
    39   34   35 1   
    40   34   36 1   
    41   41   42 1   
    42   41   45 1   
    43   42   43 1   
    44   42   46 1   
    45   42   47 1   
    46   43   44 2   
    47   43   48 1   
    48   48   49 1   
    49   48   56 1   
    50   49   50 1   
    51   49   52 1   
    52   49   57 1   
    53   50   51 2   
    54   50   62 1   
    55   52   53 1   
    56   52   58 1   
    57   52   59 1   
    58   53   54 1   
    59   53   55 2   
    60   54   60 1   
    61   54   61 1   
    62   62   63 1   
    63   62   66 1   
    64   63   64 1   
    65   63   67 1   
    66   63   68 1   
    67   64   65 2   
    68   64   69 1   
    69   69   70 1   
    70   69   76 1   
    71   70   71 1   
    72   70   73 1   
    73   70   77 1   
    74   71   72 2   
    75   71   83 1   
    76   73   74 1   
    77   73   75 1   
    78   73   78 1   
    79   74   80 1   
    80   74   81 1   
    81   74   82 1   
    82   75   79 1   
    83   83   84 1   
    84   83   91 1   
    85   84   85 1   
    86   84   87 1   
    87   84   92 1   
    88   85   86 2   
    89   85  102 1   
    90   87   88 1   
    91   87   89 1   
    92   87   93 1   
    93   88   90 1   
    94   88   94 1   
    95   88   95 1   
    96   89   96 1   
    97   89   97 1   
    98   89   98 1   
    99   90   99 1   
   100   90  100 1   
   101   90  101 1   
   102  102  103 1   
   103  102  110 1   
   104  103  104 1   
   105  103  106 1   
   106  103  111 1   
   107  104  105 2   
   108  104  114 1   
   109  106  107 1   
   110  106  112 1   
   111  106  113 1   
   112  107  108 1   
   113  107  109 1   
   114  114  115 1   
   115  114  125 1   
   116  115  116 1   
   117  115  118 1   
   118  115  126 1   
   119  116  117 2   
   120  116  134 1   
   121  118  119 1   
   122  118  127 1   
   123  118  128 1   
   124  119  120 ar  
   125  119  121 ar  
   126  120  122 ar  
   127  120  129 1   
   128  121  123 ar  
   129  121  130 1   
   130  122  124 ar  
   131  122  131 1   
   132  123  124 ar  
   133  123  132 1   
   134  124  133 1   
   135  134  135 1   
   136  134  140 1   
   137  135  136 1   
   138  135  138 1   
   139  135  141 1   
   140  136  137 2   
   141  136  148 1   
   142  138  139 1   
   143  138  142 1   
   144  138  143 1   
   145  139  140 1   
   146  139  144 1   
   147  139  145 1   
   148  140  146 1   
   149  140  147 1   
   150  148  149 1   
   151  148  157 1   
   152  149  150 1   
   153  149  152 1   
   154  149  158 1   
   155  150  151 2   
   156  150  163 1   
   157  152  153 1   
   158  152  159 1   
   159  152  160 1   
   160  153  154 1   
   161  153  161 1   
   162  153  162 1   
   163  154  155 1   
   164  154  156 1   
   165  163  164 1   
   166  163  168 1   
   167  164  165 1   
   168  164  166 1   
   169  164  167 1   
   170  170  171 1   
   171  170  172 1   
@<TRIPOS>SUBSTRUCTURE
     1 MOL         1 TEMP              0 ****  ****    0 ROOT
