@<TRIPOS>MOLECULE
MOL
  183   181     1     0     0
SMALL
resp


@<TRIPOS>ATOM
      1 C1         -0.4920    2.5010    6.0770 c3        1 MOL     -0.258766
      2 C2         -0.9830    2.4980    4.6200 c         1 MOL      0.739822
      3 O1         -0.1720    2.8920    3.7110 o         1 MOL     -0.607105
      4 H1         -1.3490    2.4500    6.7480 hc        1 MOL      0.058343
      5 H2          0.1530    1.6390    6.2460 hc        1 MOL      0.058343
      6 H3          0.0660    3.4170    6.2720 hc        1 MOL      0.058343
      7 N1         -2.1450    1.8260    4.2720 n         1 MOL     -0.755207
      8 C3         -2.6140    1.5920    2.9130 c3        1 MOL      0.528297
      9 C4         -3.0810    2.9740    2.3720 c         1 MOL      0.351298
     10 O2         -3.9650    3.5730    3.0180 o         1 MOL     -0.560007
     11 C5         -3.6810    0.4710    2.9020 c3        1 MOL     -0.455207
     12 C6         -4.1930    0.2790    1.5410 c         1 MOL      0.748917
     13 O3         -5.3810   -0.1950    1.4060 o         1 MOL     -0.616705
     14 O4         -3.5930    0.7380    0.5350 o         1 MOL     -0.616705
     15 H4         -2.6480    1.3270    4.9820 hn        1 MOL      0.337064
     16 H5         -1.7770    1.2870    2.2910 h1        1 MOL     -0.032516
     17 H6         -4.4650    0.8150    3.5790 hc        1 MOL      0.089376
     18 H7         -3.2000   -0.3860    3.3840 hc        1 MOL      0.089376
     19 N2         -2.5420    3.4050    1.2290 n         1 MOL     -0.196698
     20 C7         -2.8830    4.6950    0.6590 c3        1 MOL     -0.001310
     21 C8         -4.1010    4.6310   -0.2600 c         1 MOL      0.333780
     22 O5         -4.8220    5.6460   -0.3900 o         1 MOL     -0.571117
     23 C9         -1.5740    5.2640   -0.0360 c3        1 MOL      0.211023
     24 C10        -0.3830    5.2260    0.9870 c3        1 MOL     -0.033407
     25 C11        -1.7410    6.7380   -0.5050 c3        1 MOL     -0.227312
     26 C12         0.8190    6.0040    0.4960 c3        1 MOL     -0.387342
     27 H8         -1.9640    2.7600    0.7160 hn        1 MOL      0.141471
     28 H9         -3.1490    5.3810    1.4540 h1        1 MOL      0.056455
     29 H10        -1.2080    4.6770   -0.8800 hc        1 MOL      0.011887
     30 H11        -0.1000    4.1830    1.1140 hc        1 MOL      0.034847
     31 H12        -0.5980    5.4650    2.0320 hc        1 MOL      0.034847
     32 H13        -1.6930    7.4740    0.2870 hc        1 MOL      0.043374
     33 H14        -0.9260    6.9510   -1.1930 hc        1 MOL      0.043374
     34 H15        -2.7140    6.8680   -0.9840 hc        1 MOL      0.043374
     35 H16         0.4850    7.0330    0.5670 hc        1 MOL      0.091686
     36 H17         1.7190    5.7000    1.0390 hc        1 MOL      0.091686
     37 H18         1.1150    5.8680   -0.5440 hc        1 MOL      0.091686
     38 N3         -4.3190    3.5370   -0.8810 n         1 MOL      0.027653
     39 C13        -5.3640    3.2380   -1.8830 c3        1 MOL     -0.073480
     40 C14        -6.7130    3.0770   -1.3340 c         1 MOL      0.428819
     41 O6         -7.6900    3.4780   -1.9680 o         1 MOL     -0.546130
     42 C15        -5.0950    1.9480   -2.6240 c3        1 MOL      0.033051
     43 C16        -3.7250    2.0600   -3.2240 c         1 MOL      0.568117
     44 O7         -3.5820    2.4220   -4.3970 o         1 MOL     -0.654507
     45 O8         -2.7710    1.7370   -2.4200 o         1 MOL     -0.654507
     46 H19        -3.6330    2.8060   -0.7410 hn        1 MOL      0.054969
     47 H20        -5.4800    4.0360   -2.6230 h1        1 MOL      0.075418
     48 H21        -5.7860    1.7230   -3.4350 hc        1 MOL     -0.010553
     49 H22        -5.1510    1.1500   -1.8840 hc        1 MOL     -0.010553
     50 N4         -6.7430    2.3390   -0.2360 n         1 MOL     -0.256305
     51 C17        -7.9840    1.6530    0.3060 c3        1 MOL     -0.188655
     52 C18        -8.2540    0.3330   -0.4120 c         1 MOL      0.557313
     53 O9         -9.4120   -0.0660   -0.5190 o         1 MOL     -0.611936
     54 H23        -5.8630    2.0470    0.1440 hn        1 MOL      0.202002
     55 H24        -8.8400    2.3250    0.1670 h1        1 MOL      0.104685
     56 H25        -7.8450    1.4340    1.3630 h1        1 MOL      0.104685
     57 N5         -7.2670   -0.4510   -0.8460 n         1 MOL     -0.256618
     58 C19        -7.4130   -1.8720   -1.3100 c3        1 MOL     -0.049240
     59 C20        -7.4000   -2.8510   -0.1890 c         1 MOL      0.543697
     60 O10        -7.8990   -3.9140   -0.3750 o         1 MOL     -0.578145
     61 C21        -6.3960   -2.2040   -2.3870 c3        1 MOL     -0.180818
     62 C22        -4.9020   -1.8950   -1.9780 c         1 MOL      0.632941
     63 O11        -4.0900   -1.5630   -2.9020 o         1 MOL     -0.710325
     64 O12        -4.4500   -2.0280   -0.8500 o         1 MOL     -0.710325
     65 H26        -6.3300   -0.1680   -0.5970 hn        1 MOL      0.239013
     66 H27        -8.3170   -2.0100   -1.9120 h1        1 MOL      0.105411
     67 H28        -6.5780   -1.6960   -3.3310 hc        1 MOL      0.069219
     68 H29        -6.4300   -3.2820   -2.5640 hc        1 MOL      0.069219
     69 N6         -6.9010   -2.5740    1.0650 n         1 MOL     -0.307345
     70 C23        -6.7370   -3.5750    2.1270 c3        1 MOL      0.085625
     71 C24        -5.2610   -4.1300    2.2290 c         1 MOL      0.518007
     72 O13        -5.1440   -5.1430    2.8740 o         1 MOL     -0.594718
     73 H30        -6.3750   -1.7210    1.1430 hn        1 MOL      0.128255
     74 H31        -7.4060   -4.4320    2.0460 h1        1 MOL      0.025837
     75 H32        -6.9370   -3.1860    3.1240 h1        1 MOL      0.025837
     76 N7         -4.2430   -3.5660    1.5660 n         1 MOL     -0.156196
     77 C25        -2.8960   -4.1070    1.6350 c3        1 MOL     -0.055302
     78 C26        -1.7180   -3.1440    1.4950 c         1 MOL      0.420438
     79 O14        -1.8200   -1.9900    1.0190 o         1 MOL     -0.516936
     80 C27        -2.6720   -5.2420    0.6050 c3        1 MOL     -0.022792
     81 C28        -3.3640   -5.1010   -0.8000 c3        1 MOL     -0.174713
     82 C29        -2.4170   -4.3690   -1.7510 c         1 MOL      0.605499
     83 N8         -2.2440   -4.9560   -2.9310 n         1 MOL     -0.762439
     84 O15        -1.7980   -3.3180   -1.5690 o         1 MOL     -0.541182
     85 H33        -4.4050   -2.8090    0.9180 hn        1 MOL      0.116718
     86 H34        -2.8250   -4.6010    2.6030 h1        1 MOL      0.050807
     87 H35        -3.2020   -6.1260    0.9490 hc        1 MOL      0.010579
     88 H36        -1.6000   -5.4330    0.4820 hc        1 MOL      0.010579
     89 H37        -4.3500   -4.6500   -0.6750 hc        1 MOL      0.091068
     90 H38        -3.5160   -6.1270   -1.1240 hc        1 MOL      0.091068
     91 H39        -2.7070   -5.8260   -3.1490 hn        1 MOL      0.352938
     92 H40        -1.6730   -4.4370   -3.5910 hn        1 MOL      0.352938
     93 N9         -0.5240   -3.6170    1.8710 n         1 MOL     -0.252195
     94 C30         0.7280   -2.8450    1.8830 c3        1 MOL     -0.039919
     95 C31         1.9420   -3.3000    1.1270 c         1 MOL      0.375458
     96 O16         2.7060   -4.2080    1.4960 o         1 MOL     -0.552299
     97 C32         1.2300   -2.5510    3.2950 c3        1 MOL      0.322844
     98 C33         2.0330   -1.2280    3.3030 c3        1 MOL     -0.376220
     99 C34         0.0710   -2.3920    4.3140 c3        1 MOL     -0.376220
    100 H41        -0.5360   -4.5160    2.3330 hn        1 MOL      0.237355
    101 H42         0.4270   -1.8980    1.4430 h1        1 MOL      0.094497
    102 H43         1.8680   -3.3730    3.6140 hc        1 MOL     -0.031310
    103 H44         2.9230   -1.1790    2.6790 hc        1 MOL      0.080142
    104 H45         1.4120   -0.3650    3.0670 hc        1 MOL      0.080142
    105 H46         2.3920   -1.0680    4.3230 hc        1 MOL      0.080142
    106 H47        -0.7150   -1.6900    4.0520 hc        1 MOL      0.080142
    107 H48        -0.2900   -3.4070    4.4620 hc        1 MOL      0.080142
    108 H49         0.5070   -2.1470    5.2770 hc        1 MOL      0.080142
    109 N10         2.2790   -2.5310    0.0620 n         1 MOL     -0.138630
    110 C35         3.4830   -2.6860   -0.7750 c3        1 MOL     -0.055040
    111 C36         4.7060   -1.9410   -0.1220 c         1 MOL      0.374374
    112 O17         4.6030   -1.2060    0.9120 o         1 MOL     -0.311756
    113 C37         3.2540   -2.1840   -2.1820 c3        1 MOL     -0.157992
    114 C38         2.1570   -2.9460   -2.8160 c         1 MOL      0.725277
    115 N11         0.9490   -2.4430   -2.6350 n         1 MOL     -0.820658
    116 O18         2.3840   -3.8510   -3.5640 o         1 MOL     -0.616239
    117 H50         1.6030   -1.8310   -0.1900 hn        1 MOL      0.125518
    118 H51         3.6680   -3.7550   -0.7570 h1        1 MOL      0.095085
    119 H52         4.0410   -2.4370   -2.8900 hc        1 MOL      0.043450
    120 H53         2.9730   -1.1330   -2.0750 hc        1 MOL      0.043450
    121 H54         0.8190   -1.6270   -2.0530 hn        1 MOL      0.379985
    122 H55         0.1800   -3.0180   -2.9750 hn        1 MOL      0.379985
    123 N12         5.9010   -2.1480   -0.6780 n         1 MOL     -0.523480
    124 C39         7.1100   -1.5670   -0.1220 c3        1 MOL      0.355419
    125 C40         7.1030   -0.0610   -0.2730 c         1 MOL      0.390599
    126 O19         7.5330    0.6620    0.5640 o         1 MOL     -0.497952
    127 C41         8.3730   -2.2740   -0.7730 c3        1 MOL     -0.307773
    128 C42         9.6590   -1.5790   -0.2520 ca        1 MOL      0.179918
    129 C43        10.1010   -1.8230    1.0820 ca        1 MOL     -0.260088
    130 C44        10.5180   -0.9390   -1.1500 ca        1 MOL     -0.260088
    131 C45        11.3250   -1.3170    1.5720 ca        1 MOL     -0.186010
    132 C46        11.7150   -0.3960   -0.6200 ca        1 MOL     -0.186010
    133 C47        12.1170   -0.5550    0.6710 ca        1 MOL      0.320558
    134 O20        13.3440   -0.1410    1.0280 oh        1 MOL     -0.528193
    135 H56         5.9150   -2.8070   -1.4330 hn        1 MOL      0.296509
    136 H57         7.0580   -1.7760    0.9450 h1        1 MOL      0.035114
    137 H58         8.3720   -2.1250   -1.8530 hc        1 MOL      0.083575
    138 H59         8.3410   -3.3000   -0.4090 hc        1 MOL      0.083575
    139 H60         9.4530   -2.4580    1.6670 ha        1 MOL      0.158848
    140 H61        10.2560   -0.8300   -2.1950 ha        1 MOL      0.158848
    141 H62        11.5580   -1.4220    2.6220 ha        1 MOL      0.126911
    142 H63        12.4320    0.0500   -1.2960 ha        1 MOL      0.126911
    143 H64        13.9240    0.3230    0.4240 ho        1 MOL      0.373550
    144 N13         6.5120    0.5230   -1.3110 n         1 MOL     -0.171686
    145 C48         6.3080    2.0050   -1.5310 c3        1 MOL     -0.202471
    146 C49         5.4000    2.7130   -0.4860 c         1 MOL      0.455301
    147 O21         5.6140    3.8450   -0.1030 o         1 MOL     -0.549496
    148 C50         5.9240    2.2350   -2.9690 c3        1 MOL     -0.180747
    149 C51         4.6510    1.5040   -3.5120 c3        1 MOL     -0.227059
    150 C52         4.5260    1.7270   -5.0250 c         1 MOL      0.706580
    151 O22         5.3150    1.3550   -5.9170 o         1 MOL     -0.728079
    152 O23         3.5340    2.4420   -5.2900 o         1 MOL     -0.728079
    153 H65         6.4340   -0.0760   -2.1170 hn        1 MOL      0.222889
    154 H66         7.2990    2.4660   -1.4320 h1        1 MOL      0.097111
    155 H67         6.7880    2.0850   -3.6050 hc        1 MOL      0.103734
    156 H68         5.6430    3.2820   -3.0820 hc        1 MOL      0.103734
    157 H69         3.8440    1.9430   -2.9290 hc        1 MOL      0.041297
    158 H70         4.7990    0.4550   -3.2420 hc        1 MOL      0.041297
    159 N14         4.4960    1.9430    0.0600 n         1 MOL     -0.036090
    160 C53         3.5820    2.3310    1.1040 c3        1 MOL     -0.137611
    161 C54         4.2290    2.0670    2.4590 c         1 MOL      0.417559
    162 O24         3.9270    2.7750    3.4100 o         1 MOL     -0.538468
    163 C55         2.2950    1.4770    1.0380 c3        1 MOL      0.102955
    164 C56         1.5010    1.7790   -0.1960 c3        1 MOL     -0.073382
    165 C57         0.3480    0.8230   -0.3500 c         1 MOL      0.660410
    166 O25        -0.8420    1.2690   -0.3140 o         1 MOL     -0.742105
    167 O26         0.5580   -0.3820   -0.6730 o         1 MOL     -0.742105
    168 H71         4.7260    0.9760   -0.1410 hn        1 MOL      0.053183
    169 H72         3.3360    3.3900    1.0780 h1        1 MOL      0.142380
    170 H73         1.6950    1.7540    1.9050 hc        1 MOL      0.070180
    171 H74         2.6000    0.4220    1.0900 hc        1 MOL      0.070180
    172 H75         2.1370    1.7560   -1.0820 hc        1 MOL      0.051421
    173 H76         1.1800    2.8030   -0.0160 hc        1 MOL      0.051421
    174 N15         5.1090    1.0540    2.6040 n         1 MOL     -0.047069
    175 C58         5.7370    0.7100    3.9000 c3        1 MOL     -0.284210
    176 H77         4.9610    0.5590    4.6500 h1        1 MOL      0.095879
    177 H78         6.3200   -0.2050    3.7910 h1        1 MOL      0.095879
    178 H79         6.3920    1.5230    4.2140 h1        1 MOL      0.095879
    179 H80         5.2950    0.3890    1.8630 hn        1 MOL      0.035999
    180 Ca1        -2.2200   -0.4960   -1.3800 Ca        1 MOL      1.781536
    181 O27        -0.8990   -0.4020   -3.6980 oh        1 MOL     -0.958101
    182 H81        -1.3360   -0.0830   -4.4900 ho        1 MOL      0.455806
    183 H82         0.0340   -0.2850   -3.8870 ho        1 MOL      0.455806
@<TRIPOS>BOND
     1    1    2 1   
     2    1    4 1   
     3    1    5 1   
     4    1    6 1   
     5    2    3 2   
     6    2    7 1   
     7    7    8 1   
     8    7   15 1   
     9    8    9 1   
    10    8   11 1   
    11    8   16 1   
    12    9   10 2   
    13    9   19 1   
    14   11   12 1   
    15   11   17 1   
    16   11   18 1   
    17   12   13 1   
    18   12   14 1   
    19   19   20 1   
    20   19   27 1   
    21   20   21 1   
    22   20   23 1   
    23   20   28 1   
    24   21   22 2   
    25   21   38 1   
    26   23   24 1   
    27   23   25 1   
    28   23   29 1   
    29   24   26 1   
    30   24   30 1   
    31   24   31 1   
    32   25   32 1   
    33   25   33 1   
    34   25   34 1   
    35   26   35 1   
    36   26   36 1   
    37   26   37 1   
    38   38   39 1   
    39   38   46 1   
    40   39   40 1   
    41   39   42 1   
    42   39   47 1   
    43   40   41 2   
    44   40   50 1   
    45   42   43 1   
    46   42   48 1   
    47   42   49 1   
    48   43   44 1   
    49   43   45 1   
    50   50   51 1   
    51   50   54 1   
    52   51   52 1   
    53   51   55 1   
    54   51   56 1   
    55   52   53 2   
    56   52   57 1   
    57   57   58 1   
    58   57   65 1   
    59   58   59 1   
    60   58   61 1   
    61   58   66 1   
    62   59   60 2   
    63   59   69 1   
    64   61   62 1   
    65   61   67 1   
    66   61   68 1   
    67   62   63 1   
    68   62   64 1   
    69   69   70 1   
    70   69   73 1   
    71   70   71 1   
    72   70   74 1   
    73   70   75 1   
    74   71   72 2   
    75   71   76 1   
    76   76   77 1   
    77   76   85 1   
    78   77   78 1   
    79   77   80 1   
    80   77   86 1   
    81   78   79 2   
    82   78   93 1   
    83   80   81 1   
    84   80   87 1   
    85   80   88 1   
    86   81   82 1   
    87   81   89 1   
    88   81   90 1   
    89   82   83 1   
    90   82   84 2   
    91   83   91 1   
    92   83   92 1   
    93   93   94 1   
    94   93  100 1   
    95   94   95 1   
    96   94   97 1   
    97   94  101 1   
    98   95   96 2   
    99   95  109 1   
   100   97   98 1   
   101   97   99 1   
   102   97  102 1   
   103   98  103 1   
   104   98  104 1   
   105   98  105 1   
   106   99  106 1   
   107   99  107 1   
   108   99  108 1   
   109  109  110 1   
   110  109  117 1   
   111  110  111 1   
   112  110  113 1   
   113  110  118 1   
   114  111  112 2   
   115  111  123 1   
   116  113  114 1   
   117  113  119 1   
   118  113  120 1   
   119  114  115 1   
   120  114  116 2   
   121  115  121 1   
   122  115  122 1   
   123  123  124 1   
   124  123  135 1   
   125  124  125 1   
   126  124  127 1   
   127  124  136 1   
   128  125  126 2   
   129  125  144 1   
   130  127  128 1   
   131  127  137 1   
   132  127  138 1   
   133  128  129 ar  
   134  128  130 ar  
   135  129  131 ar  
   136  129  139 1   
   137  130  132 ar  
   138  130  140 1   
   139  131  133 ar  
   140  131  141 1   
   141  132  133 ar  
   142  132  142 1   
   143  133  134 1   
   144  134  143 1   
   145  144  145 1   
   146  144  153 1   
   147  145  146 1   
   148  145  148 1   
   149  145  154 1   
   150  146  147 2   
   151  146  159 1   
   152  148  149 1   
   153  148  155 1   
   154  148  156 1   
   155  149  150 1   
   156  149  157 1   
   157  149  158 1   
   158  150  151 1   
   159  150  152 1   
   160  159  160 1   
   161  159  168 1   
   162  160  161 1   
   163  160  163 1   
   164  160  169 1   
   165  161  162 2   
   166  161  174 1   
   167  163  164 1   
   168  163  170 1   
   169  163  171 1   
   170  164  165 1   
   171  164  172 1   
   172  164  173 1   
   173  165  166 1   
   174  165  167 1   
   175  174  175 1   
   176  174  179 1   
   177  175  176 1   
   178  175  177 1   
   179  175  178 1   
   180  181  182 1   
   181  181  183 1   
@<TRIPOS>SUBSTRUCTURE
     1 MOL         1 TEMP              0 ****  ****    0 ROOT
