@<TRIPOS>MOLECULE
MOL
  182   178     1     0     0
SMALL
resp


@<TRIPOS>ATOM
      1 C1          1.8850    2.9800    5.4290 c3        1 MOL     -0.382122
      2 C2          1.1730    2.6360    4.0910 c         1 MOL      0.683954
      3 O1          1.8120    2.2060    3.1280 o         1 MOL     -0.596825
      4 H1          2.5470    3.8320    5.2790 hc        1 MOL      0.104840
      5 H2          1.1400    3.2290    6.1850 hc        1 MOL      0.104840
      6 H3          2.4680    2.1210    5.7620 hc        1 MOL      0.104840
      7 N1         -0.1500    2.8140    3.9770 n         1 MOL     -0.629566
      8 C3         -0.8940    2.5630    2.7670 c3        1 MOL      0.451901
      9 C4         -0.9900    3.8420    1.9310 c         1 MOL      0.307693
     10 O2         -1.7480    4.6660    2.3000 o         1 MOL     -0.506311
     11 C5         -2.2060    1.9080    3.0760 c3        1 MOL     -0.217986
     12 C6         -3.0050    1.4620    1.8860 c         1 MOL      0.904678
     13 O3         -2.5560    1.6490    0.7350 o         1 MOL     -0.739475
     14 O4         -3.9550    0.7620    2.0900 o         1 MOL     -0.739475
     15 H4         -0.6840    2.8790    4.8250 hn        1 MOL      0.319914
     16 H5         -0.3300    1.8520    2.1610 h1        1 MOL     -0.142362
     17 H6         -2.8020    2.6480    3.6170 hc        1 MOL      0.026757
     18 H7         -2.0450    1.0760    3.7540 hc        1 MOL      0.026757
     19 N2         -0.1650    3.9320    0.8610 n         1 MOL     -0.079978
     20 C7          0.1380    5.2220    0.1980 c3        1 MOL     -0.132440
     21 C8         -0.9470    5.6800   -0.7260 c         1 MOL      0.550543
     22 O5         -0.8300    6.7620   -1.3180 o         1 MOL     -0.577074
     23 C9          1.6090    5.3260   -0.3660 c3        1 MOL     -0.071159
     24 C10         2.6990    5.2890    0.7140 c3        1 MOL     -0.096456
     25 C11         4.1490    5.2030    0.0530 c3        1 MOL     -0.116132
     26 C12         4.7730    6.5300   -0.1040 c3        1 MOL      0.200741
     27 N3          6.0620    6.3750   -0.9260 n4        1 MOL     -0.504115
     28 H8          0.4050    3.1190    0.6600 hn        1 MOL      0.277007
     29 H9          0.1670    5.8990    1.0570 h1        1 MOL      0.090198
     30 H10         1.7820    6.2230   -0.9650 hc        1 MOL      0.043661
     31 H11         1.6710    4.4740   -1.0460 hc        1 MOL      0.043661
     32 H12         2.5210    4.4740    1.4100 hc        1 MOL      0.072985
     33 H13         2.6750    6.2010    1.2940 hc        1 MOL      0.072985
     34 H14         4.0680    4.7000   -0.9140 hc        1 MOL      0.067654
     35 H15         4.8840    4.7060    0.6840 hc        1 MOL      0.067654
     36 H16         4.9050    7.1050    0.8040 hx        1 MOL      0.053947
     37 H17         4.0950    7.1970   -0.6230 hx        1 MOL      0.053947
     38 H18         6.9320    6.3540   -0.4010 hn        1 MOL      0.357188
     39 H19         5.9980    5.5010   -1.4140 hn        1 MOL      0.357188
     40 H20         6.1030    7.1200   -1.6130 hn        1 MOL      0.357188
     41 N4         -2.0740    4.9230   -0.8800 n         1 MOL     -0.339522
     42 C13        -3.2960    5.2490   -1.6480 c3        1 MOL      0.153581
     43 C14        -4.5550    4.6750   -0.9530 c         1 MOL      0.276304
     44 O6         -5.7090    4.9070   -1.3930 o         1 MOL     -0.487177
     45 C15        -3.1850    4.6900   -3.0550 c3        1 MOL     -0.290357
     46 C16        -2.7540    3.2200   -3.2150 c         1 MOL      0.871564
     47 O7         -2.3830    2.5280   -2.2310 o         1 MOL     -0.737951
     48 O8         -2.7470    2.7270   -4.3790 o         1 MOL     -0.737951
     49 H21        -1.9040    3.9780   -0.5660 hn        1 MOL      0.109552
     50 H22        -3.3760    6.3270   -1.7810 h1        1 MOL      0.101211
     51 H23        -2.3660    5.2590   -3.4880 hc        1 MOL      0.072149
     52 H24        -4.1820    4.8710   -3.4590 hc        1 MOL      0.072149
     53 N5         -4.4440    3.8910    0.1380 n         1 MOL     -0.032715
     54 C17        -5.5090    3.5630    1.1270 c3        1 MOL     -0.043230
     55 C18        -6.5800    2.5780    0.4990 c         1 MOL      0.426045
     56 O9         -7.8080    2.8140    0.5490 o         1 MOL     -0.546862
     57 H25        -3.5080    3.6300    0.4050 hn        1 MOL      0.028337
     58 H26        -6.1090    4.4100    1.4550 h1        1 MOL      0.067931
     59 H27        -5.0640    3.2570    2.0780 h1        1 MOL      0.067931
     60 N6         -6.0690    1.4550    0.0450 n         1 MOL     -0.077264
     61 C19        -6.7700    0.3640   -0.5880 c3        1 MOL     -0.056709
     62 C20        -6.8570   -0.9780    0.1090 c         1 MOL      0.371037
     63 O10        -7.4050   -1.9110   -0.5220 o         1 MOL     -0.453282
     64 C21        -6.2480    0.2640   -2.0230 c3        1 MOL     -0.005254
     65 C22        -4.8480   -0.3270   -2.1060 c         1 MOL      0.488674
     66 N7         -4.6560   -1.1220   -3.1330 n         1 MOL     -0.693703
     67 O11        -3.9570   -0.1800   -1.2330 o         1 MOL     -0.561570
     68 H28        -5.1160    1.2580    0.3210 hn        1 MOL      0.020942
     69 H29        -7.8190    0.6320   -0.7270 h1        1 MOL      0.113666
     70 H30        -6.3100    1.2330   -2.5150 hc        1 MOL      0.042204
     71 H31        -6.9280   -0.3210   -2.6550 hc        1 MOL      0.042204
     72 H32        -5.2890   -1.1870   -3.9270 hn        1 MOL      0.364781
     73 H33        -3.7160   -1.4980   -3.1840 hn        1 MOL      0.364781
     74 N8         -6.3110   -1.0520    1.3430 n         1 MOL     -0.326365
     75 C23        -6.3180   -2.3110    2.1020 c3        1 MOL     -0.090838
     76 C24        -5.0580   -3.1660    2.0050 c         1 MOL      0.611689
     77 O12        -4.9640   -4.1990    2.5400 o         1 MOL     -0.544518
     78 H34        -5.6710   -0.3740    1.7240 hn        1 MOL      0.278387
     79 H35        -7.1850   -2.9280    1.8480 h1        1 MOL      0.090010
     80 H36        -6.4200   -2.1060    3.1650 h1        1 MOL      0.090010
     81 N9         -4.0590   -2.6420    1.2060 n         1 MOL     -0.444550
     82 C25        -2.8330   -3.3620    0.9160 c3        1 MOL      0.024491
     83 C26        -1.5640   -2.5110    0.9940 c         1 MOL      0.445497
     84 O13        -1.6350   -1.3390    0.6600 o         1 MOL     -0.611990
     85 C27        -2.9870   -3.8870   -0.4720 c3        1 MOL     -0.121240
     86 C28        -4.1280   -4.8900   -0.4290 ca        1 MOL     -0.015577
     87 C29        -5.3840   -4.5660   -0.9380 ca        1 MOL     -0.106853
     88 C30        -3.8800   -6.2700   -0.0610 ca        1 MOL     -0.106853
     89 C31        -6.3710   -5.5470   -1.0960 ca        1 MOL     -0.315181
     90 C32        -4.8640   -7.2730   -0.1730 ca        1 MOL     -0.315181
     91 C33        -6.1450   -6.8650   -0.5950 ca        1 MOL      0.434688
     92 O14        -7.1580   -7.7520   -0.6700 oh        1 MOL     -0.524719
     93 H37        -4.1460   -1.7440    0.7630 hn        1 MOL      0.386463
     94 H38        -2.7080   -4.1990    1.6000 h1        1 MOL      0.098047
     95 H39        -2.1200   -4.4670   -0.7630 hc        1 MOL      0.057814
     96 H40        -3.1870   -3.0760   -1.1750 hc        1 MOL      0.057814
     97 H41        -5.5440   -3.5970   -1.3890 ha        1 MOL      0.107101
     98 H42        -2.8710   -6.3940    0.3150 ha        1 MOL      0.107101
     99 H43        -7.2640   -5.2800   -1.6430 ha        1 MOL      0.153715
    100 H44        -4.6620   -8.3200   -0.0320 ha        1 MOL      0.153715
    101 H45        -7.0170   -8.5990   -0.2400 ho        1 MOL      0.376250
    102 N10        -0.4280   -3.1190    1.3490 n         1 MOL     -0.264231
    103 C34         0.9090   -2.4900    1.3190 c3        1 MOL     -0.329425
    104 C35         1.8680   -3.3140    0.4820 c         1 MOL      0.457306
    105 O15         1.8960   -4.5020    0.7120 o         1 MOL     -0.557472
    106 C36         1.3930   -2.1100    2.7800 c3        1 MOL      0.161063
    107 C37         1.6080   -3.3230    3.7430 c3        1 MOL     -0.154322
    108 C38         0.3630   -1.0440    3.2900 c3        1 MOL     -0.261391
    109 C39         2.0260   -2.9310    5.1870 c3        1 MOL     -0.357703
    110 H46        -0.5680   -3.9670    1.8740 hn        1 MOL      0.251983
    111 H47         0.7260   -1.5260    0.8450 h1        1 MOL      0.245515
    112 H48         2.3900   -1.6850    2.6000 hc        1 MOL      0.017682
    113 H49         2.3920   -3.8660    3.2210 hc        1 MOL      0.095435
    114 H50         0.6420   -3.8310    3.7920 hc        1 MOL      0.095435
    115 H51         0.6580   -0.6430    4.2600 hc        1 MOL      0.092993
    116 H52         0.2560   -0.1750    2.6410 hc        1 MOL      0.092993
    117 H53        -0.5880   -1.5640    3.4000 hc        1 MOL      0.092993
    118 H54         2.6350   -2.0390    5.0550 hc        1 MOL      0.104992
    119 H55         1.2440   -2.8110    5.9340 hc        1 MOL      0.104992
    120 H56         2.6430   -3.8150    5.3910 hc        1 MOL      0.104992
    121 N11         2.7900   -2.7960   -0.3210 n         1 MOL     -0.089904
    122 C40         3.7330   -3.4690   -1.2130 c3        1 MOL     -0.001104
    123 C41         5.1250   -3.5030   -0.5930 c         1 MOL      0.511865
    124 O16         5.3850   -2.8790    0.4050 o         1 MOL     -0.408789
    125 C42         3.8210   -2.8980   -2.6070 c3        1 MOL     -0.280697
    126 O17         4.2190   -1.5670   -2.6380 oh        1 MOL     -0.335391
    127 H57         2.6020   -1.8370   -0.5780 hn        1 MOL      0.166775
    128 H58         3.4030   -4.5020   -1.3420 h1        1 MOL      0.078700
    129 H59         2.8400   -2.8530   -3.0820 h1        1 MOL      0.121236
    130 H60         4.5870   -3.4870   -3.1220 h1        1 MOL      0.121236
    131 H61         3.7230   -1.1840   -3.3690 ho        1 MOL      0.358293
    132 N12         6.0010   -4.3090   -1.1570 n         1 MOL     -0.490047
    133 C43         7.4060   -4.1760   -0.9100 c3        1 MOL      0.121916
    134 C44         7.9190   -2.7220   -1.1770 c         1 MOL      0.533405
    135 O18         8.7270   -2.2560   -0.4270 o         1 MOL     -0.511460
    136 C45         8.2400   -5.1750   -1.7730 c3        1 MOL     -0.230582
    137 H62         5.7260   -4.9090   -1.9180 hn        1 MOL      0.309900
    138 H63         7.6420   -4.2780    0.1480 h1        1 MOL      0.078296
    139 H64         7.5880   -5.9860   -2.0730 hc        1 MOL      0.073819
    140 H65         8.5060   -4.7530   -2.7420 hc        1 MOL      0.073819
    141 H66         9.1250   -5.5520   -1.2610 hc        1 MOL      0.073819
    142 N13         7.4010   -2.0220   -2.1510 n         1 MOL     -0.435453
    143 C46         7.8550   -0.6630   -2.4900 c3        1 MOL      0.122322
    144 C47         7.3440    0.2310   -1.2920 c         1 MOL      0.231552
    145 O19         8.0420    1.1150   -0.7520 o         1 MOL     -0.522321
    146 C48         7.2060   -0.1140   -3.8680 c3        1 MOL     -0.304907
    147 H67         6.5130   -2.2660   -2.5610 hn        1 MOL      0.257075
    148 H68         8.9340   -0.6160   -2.5750 h1        1 MOL      0.117326
    149 H69         7.4940    0.9170   -4.0890 hc        1 MOL      0.088435
    150 H70         7.6220   -0.7390   -4.6520 hc        1 MOL      0.088435
    151 H71         6.1150   -0.1430   -3.8560 hc        1 MOL      0.088435
    152 N14         6.1880   -0.0460   -0.7260 n         1 MOL      0.150752
    153 C49         5.7130    0.7090    0.4960 c3        1 MOL     -0.083572
    154 C50         6.4290    0.3920    1.7870 c         1 MOL      0.524508
    155 O20         6.5850    1.3010    2.5800 o         1 MOL     -0.543004
    156 C51         4.1250    0.5300    0.5740 c3        1 MOL      0.118923
    157 C52         3.1770    1.2640   -0.4020 c3        1 MOL     -0.027534
    158 C53         1.7480    0.7000   -0.5210 c         1 MOL      0.899295
    159 O21         0.7360    1.4150   -0.3520 o         1 MOL     -0.802602
    160 O22         1.5880   -0.3940   -1.0890 o         1 MOL     -0.802602
    161 H72         5.6110   -0.7760   -1.1240 hn        1 MOL     -0.106567
    162 H73         5.8840    1.7770    0.3530 h1        1 MOL      0.034245
    163 H74         3.7920    0.8330    1.5660 hc        1 MOL     -0.036950
    164 H75         3.9680   -0.5520    0.5260 hc        1 MOL     -0.036950
    165 H76         3.6750    1.3170   -1.3640 hc        1 MOL     -0.048123
    166 H77         3.0370    2.2610    0.0080 hc        1 MOL     -0.048123
    167 N15         6.8500   -0.9080    2.0160 n         1 MOL     -0.208986
    168 C54         7.6510   -1.3300    3.1770 c3        1 MOL     -0.226372
    169 H78         8.1130   -0.4560    3.6360 h1        1 MOL      0.100464
    170 H79         7.0060   -1.8230    3.9040 h1        1 MOL      0.100464
    171 H80         8.4270   -2.0210    2.8510 h1        1 MOL      0.100464
    172 H81         6.5380   -1.6160    1.3720 hn        1 MOL      0.192177
    173 Ca1        -1.3540    0.4030   -1.2920 Ca        1 MOL      1.735913
    174 O23        -2.1720   -0.1330   -3.8760 oh        1 MOL     -0.818053
    175 H82        -2.1360    0.8090   -3.9870 ho        1 MOL      0.392806
    176 H83        -2.2210   -0.4860   -4.7610 ho        1 MOL      0.392806
    177 O24        -0.3080   -1.8220   -2.2800 oh        1 MOL     -0.818053
    178 H84         0.5890   -1.5420   -2.0980 ho        1 MOL      0.392806
    179 H85        -0.2350   -2.7440   -2.5150 ho        1 MOL      0.392806
    180 O25         0.2230    1.0220   -3.4360 oh        1 MOL     -0.818053
    181 H86         0.0320    0.5510   -4.2480 ho        1 MOL      0.392806
    182 H87         1.1180    0.7710   -3.2200 ho        1 MOL      0.392806
@<TRIPOS>BOND
     1    1    2 1   
     2    1    4 1   
     3    1    5 1   
     4    1    6 1   
     5    2    3 2   
     6    2    7 1   
     7    7    8 1   
     8    7   15 1   
     9    8    9 1   
    10    8   11 1   
    11    8   16 1   
    12    9   10 2   
    13    9   19 1   
    14   11   12 1   
    15   11   17 1   
    16   11   18 1   
    17   12   13 1   
    18   12   14 1   
    19   19   20 1   
    20   19   28 1   
    21   20   21 1   
    22   20   23 1   
    23   20   29 1   
    24   21   22 2   
    25   21   41 1   
    26   23   24 1   
    27   23   30 1   
    28   23   31 1   
    29   24   25 1   
    30   24   32 1   
    31   24   33 1   
    32   25   26 1   
    33   25   34 1   
    34   25   35 1   
    35   26   27 1   
    36   26   36 1   
    37   26   37 1   
    38   27   38 1   
    39   27   39 1   
    40   27   40 1   
    41   41   42 1   
    42   41   49 1   
    43   42   43 1   
    44   42   45 1   
    45   42   50 1   
    46   43   44 2   
    47   43   53 1   
    48   45   46 1   
    49   45   51 1   
    50   45   52 1   
    51   46   47 1   
    52   46   48 1   
    53   53   54 1   
    54   53   57 1   
    55   54   55 1   
    56   54   58 1   
    57   54   59 1   
    58   55   56 2   
    59   55   60 1   
    60   60   61 1   
    61   60   68 1   
    62   61   62 1   
    63   61   64 1   
    64   61   69 1   
    65   62   63 2   
    66   62   74 1   
    67   64   65 1   
    68   64   70 1   
    69   64   71 1   
    70   65   66 1   
    71   65   67 2   
    72   66   72 1   
    73   66   73 1   
    74   74   75 1   
    75   74   78 1   
    76   75   76 1   
    77   75   79 1   
    78   75   80 1   
    79   76   77 2   
    80   76   81 1   
    81   81   82 1   
    82   81   93 1   
    83   82   83 1   
    84   82   85 1   
    85   82   94 1   
    86   83   84 2   
    87   83  102 1   
    88   85   86 1   
    89   85   95 1   
    90   85   96 1   
    91   86   87 ar  
    92   86   88 ar  
    93   87   89 ar  
    94   87   97 1   
    95   88   90 ar  
    96   88   98 1   
    97   89   91 ar  
    98   89   99 1   
    99   90   91 ar  
   100   90  100 1   
   101   91   92 1   
   102   92  101 1   
   103  102  103 1   
   104  102  110 1   
   105  103  104 1   
   106  103  106 1   
   107  103  111 1   
   108  104  105 2   
   109  104  121 1   
   110  106  107 1   
   111  106  108 1   
   112  106  112 1   
   113  107  109 1   
   114  107  113 1   
   115  107  114 1   
   116  108  115 1   
   117  108  116 1   
   118  108  117 1   
   119  109  118 1   
   120  109  119 1   
   121  109  120 1   
   122  121  122 1   
   123  121  127 1   
   124  122  123 1   
   125  122  125 1   
   126  122  128 1   
   127  123  124 2   
   128  123  132 1   
   129  125  126 1   
   130  125  129 1   
   131  125  130 1   
   132  126  131 1   
   133  132  133 1   
   134  132  137 1   
   135  133  134 1   
   136  133  136 1   
   137  133  138 1   
   138  134  135 2   
   139  134  142 1   
   140  136  139 1   
   141  136  140 1   
   142  136  141 1   
   143  142  143 1   
   144  142  147 1   
   145  143  144 1   
   146  143  146 1   
   147  143  148 1   
   148  144  145 2   
   149  144  152 1   
   150  146  149 1   
   151  146  150 1   
   152  146  151 1   
   153  152  153 1   
   154  152  161 1   
   155  153  154 1   
   156  153  156 1   
   157  153  162 1   
   158  154  155 2   
   159  154  167 1   
   160  156  157 1   
   161  156  163 1   
   162  156  164 1   
   163  157  158 1   
   164  157  165 1   
   165  157  166 1   
   166  158  159 1   
   167  158  160 1   
   168  167  168 1   
   169  167  172 1   
   170  168  169 1   
   171  168  170 1   
   172  168  171 1   
   173  174  175 1   
   174  174  176 1   
   175  177  178 1   
   176  177  179 1   
   177  180  181 1   
   178  180  182 1   
@<TRIPOS>SUBSTRUCTURE
     1 MOL         1 TEMP              0 ****  ****    0 ROOT
