@<TRIPOS>MOLECULE
MOL
  179   176     1     0     0
SMALL
resp


@<TRIPOS>ATOM
      1 C1          1.7360    3.6430    5.0110 c3        1 MOL     -0.403347
      2 C2          1.0520    3.3270    3.6320 c         1 MOL      0.576653
      3 O1          1.7060    3.1050    2.5760 o         1 MOL     -0.543454
      4 H1          1.3840    4.6070    5.3790 hc        1 MOL      0.109487
      5 H2          1.4800    2.8650    5.7310 hc        1 MOL      0.109487
      6 H3          2.8170    3.6770    4.8820 hc        1 MOL      0.109487
      7 N1         -0.2950    3.0680    3.6900 n         1 MOL     -0.570784
      8 C3         -1.0450    2.6720    2.5000 c3        1 MOL      0.051787
      9 C4         -1.6100    3.9360    1.8320 c         1 MOL      0.437209
     10 O2         -2.7320    4.3110    2.0920 o         1 MOL     -0.475118
     11 C5         -2.1860    1.7270    2.7420 c3        1 MOL      0.081102
     12 C6         -2.8790    1.2660    1.4040 c         1 MOL      0.577849
     13 O3         -4.0090    0.6640    1.4800 o         1 MOL     -0.733098
     14 O4         -2.3380    1.5210    0.3190 o         1 MOL     -0.733098
     15 H4         -0.7890    3.2260    4.5590 hn        1 MOL      0.340897
     16 H5         -0.4260    2.2300    1.7060 h1        1 MOL      0.042743
     17 H6         -2.8530    2.1630    3.4840 hc        1 MOL      0.010448
     18 H7         -1.8080    0.8790    3.3010 hc        1 MOL      0.010448
     19 N2         -0.8710    4.6470    0.9950 n         1 MOL     -0.393796
     20 C7         -1.1750    6.0330    0.6010 c3        1 MOL      0.175525
     21 C8         -2.3100    5.9290   -0.4360 c         1 MOL      0.143625
     22 O5         -3.2710    6.7530   -0.4860 o         1 MOL     -0.478881
     23 C9         -0.0290    6.8150   -0.0360 c3        1 MOL     -0.148399
     24 C10         0.9930    7.3030    0.9900 c3        1 MOL     -0.104412
     25 C11         2.2930    7.6490    0.3170 c3        1 MOL     -0.189843
     26 C12         3.3390    8.3810    1.2150 c3        1 MOL     -0.043005
     27 N3          3.7750    7.4860    2.3850 n4        1 MOL     -0.482722
     28 H8         -0.0170    4.2340    0.6640 hn        1 MOL      0.323894
     29 H9         -1.5940    6.6340    1.4000 h1        1 MOL      0.062528
     30 H10        -0.4910    7.7150   -0.4490 hc        1 MOL      0.096300
     31 H11         0.4080    6.2240   -0.8440 hc        1 MOL      0.096300
     32 H12         1.1640    6.5390    1.7480 hc        1 MOL      0.066787
     33 H13         0.4700    8.1910    1.3310 hc        1 MOL      0.066787
     34 H14         2.0480    8.3250   -0.4950 hc        1 MOL      0.110299
     35 H15         2.7860    6.7650   -0.0850 hc        1 MOL      0.110299
     36 H16         2.8390    9.2920    1.5500 hx        1 MOL      0.130121
     37 H17         4.2560    8.6990    0.7220 hx        1 MOL      0.130121
     38 H18         3.0280    7.3140    3.0420 hn        1 MOL      0.369198
     39 H19         4.0050    6.6220    1.9090 hn        1 MOL      0.369198
     40 H20         4.6310    7.7800    2.8360 hn        1 MOL      0.369198
     41 N4         -2.2270    4.9880   -1.3490 n         1 MOL     -0.099376
     42 C13        -3.2820    4.9060   -2.4120 c3        1 MOL     -0.042673
     43 C14        -4.6880    4.5410   -1.8340 c         1 MOL      0.458684
     44 O6         -5.7390    4.8910   -2.3540 o         1 MOL     -0.529448
     45 C15        -2.9020    3.9370   -3.5950 c3        1 MOL     -0.280755
     46 C16        -2.3700    2.5690   -3.2240 c         1 MOL      0.755197
     47 O7         -1.1760    2.2450   -3.3240 o         1 MOL     -0.735314
     48 O8         -3.1800    1.7320   -2.7590 o         1 MOL     -0.735314
     49 H21        -1.3630    4.4710   -1.4410 hn        1 MOL      0.196643
     50 H22        -3.4940    5.9070   -2.7850 h1        1 MOL      0.092899
     51 H23        -2.1660    4.4190   -4.2410 hc        1 MOL      0.081299
     52 H24        -3.8010    3.7740   -4.1810 hc        1 MOL      0.081299
     53 N5         -4.6940    3.7790   -0.7370 n         1 MOL      0.057280
     54 C17        -5.9010    3.1790   -0.1870 c3        1 MOL     -0.218018
     55 C18        -6.4160    1.9170   -0.8940 c         1 MOL      0.761555
     56 O9         -7.2930    2.0900   -1.7260 o         1 MOL     -0.562575
     57 H25        -3.7800    3.4140   -0.4840 hn        1 MOL      0.054410
     58 H26        -6.7750    3.8250   -0.0770 h1        1 MOL      0.064413
     59 H27        -5.6130    2.8750    0.8170 h1        1 MOL      0.064413
     60 N6         -5.9110    0.7400   -0.5380 n         1 MOL     -0.663586
     61 C19        -6.5360   -0.5680   -0.8790 c3        1 MOL     -0.050874
     62 C20        -6.3680   -1.7060    0.1310 c         1 MOL      0.235609
     63 O10        -6.7830   -2.8800   -0.0570 o         1 MOL     -0.455913
     64 C21        -6.0290   -0.9460   -2.2930 c3        1 MOL     -0.123874
     65 C22        -4.6090   -1.7100   -2.1950 c         1 MOL      0.622095
     66 N7         -4.5220   -2.8440   -2.8110 n         1 MOL     -0.672370
     67 O11        -3.5910   -1.3170   -1.5960 o         1 MOL     -0.734935
     68 H28        -5.0830    0.7100    0.0410 hn        1 MOL      0.450124
     69 H29        -7.5940   -0.3800   -1.0370 h1        1 MOL      0.144259
     70 H30        -5.9950   -0.1450   -3.0410 hc        1 MOL      0.084967
     71 H31        -6.7180   -1.6650   -2.7270 hc        1 MOL      0.084967
     72 H32        -5.1990   -3.1400   -3.5010 hn        1 MOL      0.340747
     73 H33        -3.6240   -3.2720   -2.6580 hn        1 MOL      0.340747
     74 N8         -5.8660   -1.4280    1.2490 n         1 MOL      0.073833
     75 C23        -5.7000   -2.2180    2.4570 c3        1 MOL     -0.581337
     76 C24        -4.3960   -2.9930    2.5310 c         1 MOL      0.844078
     77 O12        -4.2940   -3.8190    3.4100 o         1 MOL     -0.601913
     78 H34        -5.4900   -0.5040    1.3820 hn        1 MOL      0.174242
     79 H35        -6.4300   -3.0260    2.4840 h1        1 MOL      0.203364
     80 H36        -5.7500   -1.6090    3.3570 h1        1 MOL      0.203364
     81 N9         -3.4080   -2.6810    1.6550 n         1 MOL     -0.829007
     82 C25        -2.2000   -3.5290    1.4650 c3        1 MOL      0.225686
     83 C26        -1.0040   -2.6130    1.1390 c         1 MOL      0.524872
     84 O13        -1.1830   -1.6050    0.4850 o         1 MOL     -0.573620
     85 C27        -2.4960   -4.5200    0.2950 c3        1 MOL     -0.325547
     86 C28        -3.6450   -5.5400    0.5570 ca        1 MOL      0.229876
     87 C29        -4.8200   -5.3720   -0.1920 ca        1 MOL     -0.180763
     88 C30        -3.2900   -6.7120    1.1720 ca        1 MOL     -0.180763
     89 C31        -5.8050   -6.3760   -0.1060 ca        1 MOL     -0.297544
     90 C32        -4.2120   -7.7870    1.0880 ca        1 MOL     -0.297544
     91 C33        -5.5440   -7.5910    0.5520 ca        1 MOL      0.367853
     92 O14        -6.5250   -8.5400    0.6650 oh        1 MOL     -0.479446
     93 H37        -3.6530   -1.9460    1.0130 hn        1 MOL      0.571153
     94 H38        -1.8540   -4.0420    2.3720 h1        1 MOL      0.058304
     95 H39        -1.5750   -5.0600    0.0790 hc        1 MOL      0.060022
     96 H40        -2.6660   -4.0350   -0.6630 hc        1 MOL      0.060022
     97 H41        -4.9010   -4.4990   -0.8120 ha        1 MOL      0.136826
     98 H42        -2.3380   -6.8180    1.6830 ha        1 MOL      0.136826
     99 H43        -6.7250   -6.1720   -0.6330 ha        1 MOL      0.146254
    100 H44        -3.8790   -8.7570    1.4380 ha        1 MOL      0.146254
    101 H45        -6.2850   -9.3460    1.1370 ho        1 MOL      0.357829
    102 N10         0.1960   -2.9380    1.6150 n         1 MOL     -0.291983
    103 C34         1.5380   -2.3130    1.4150 c3        1 MOL     -0.552162
    104 C35         2.5090   -3.4710    1.0970 c         1 MOL      0.607239
    105 O15         2.6630   -4.3840    1.8850 o         1 MOL     -0.537358
    106 C36         1.9290   -1.3480    2.5530 c3        1 MOL      0.342066
    107 C37         2.1240   -2.1470    3.8620 c3        1 MOL     -0.004837
    108 C38         0.8000   -0.3280    2.7780 c3        1 MOL     -0.159991
    109 C39         2.4830   -1.2560    5.0090 c3        1 MOL     -0.374616
    110 H46         0.2040   -3.5450    2.4310 hn        1 MOL      0.241129
    111 H47         1.4410   -1.6340    0.5660 h1        1 MOL      0.314309
    112 H48         2.8710   -0.8540    2.2960 hc        1 MOL     -0.051905
    113 H49         2.9770   -2.8070    3.6890 hc        1 MOL      0.041653
    114 H50         1.2140   -2.6800    4.1140 hc        1 MOL      0.041653
    115 H51         0.0490   -0.7430    3.4640 hc        1 MOL      0.058171
    116 H52         1.1410    0.5500    3.3180 hc        1 MOL      0.058171
    117 H53         0.3670    0.0080    1.8360 hc        1 MOL      0.058171
    118 H54         3.3190   -1.6780    5.5750 hc        1 MOL      0.094743
    119 H55         2.6760   -0.2850    4.5490 hc        1 MOL      0.094743
    120 H56         1.6230   -1.0660    5.6530 hc        1 MOL      0.094743
    121 N11         3.2180   -3.4260   -0.0530 n         1 MOL     -0.389894
    122 C40         4.4040   -4.1640   -0.5020 c3        1 MOL      0.020014
    123 C41         5.6720   -3.4050    0.0110 c         1 MOL      0.603498
    124 O16         5.6330   -2.2970    0.4930 o         1 MOL     -0.449772
    125 C42         4.3320   -4.3680   -2.0650 c3        1 MOL     -0.180994
    126 O17         4.4150   -3.0450   -2.5300 oh        1 MOL     -0.449572
    127 H57         2.9790   -2.7370   -0.7620 hn        1 MOL      0.323762
    128 H58         4.5400   -5.0890    0.0420 h1        1 MOL      0.070906
    129 H59         3.3610   -4.7480   -2.3890 h1        1 MOL      0.115658
    130 H60         5.1690   -4.9980   -2.3550 h1        1 MOL      0.115658
    131 H61         4.4000   -3.2050   -3.4810 ho        1 MOL      0.390316
    132 N12         6.8820   -3.9500   -0.1590 n         1 MOL     -0.534011
    133 C43         8.1220   -3.2380    0.0640 c3        1 MOL      0.199825
    134 C44         8.4160   -2.0380   -0.8170 c         1 MOL      0.499584
    135 O18         8.8500   -1.0090   -0.2850 o         1 MOL     -0.527289
    136 C45         9.3040   -4.2460    0.0530 c3        1 MOL     -0.358153
    137 H62         6.9570   -4.9160   -0.4500 hn        1 MOL      0.295196
    138 H63         8.1420   -2.8820    1.1020 h1        1 MOL      0.085762
    139 H64         8.8830   -5.2010   -0.2870 hc        1 MOL      0.101088
    140 H65        10.1360   -4.0180   -0.6150 hc        1 MOL      0.101088
    141 H66         9.7120   -4.2970    1.0540 hc        1 MOL      0.101088
    142 N13         7.8650   -2.0910   -2.0260 n         1 MOL     -0.500779
    143 C46         7.7930   -0.9410   -2.9220 c3        1 MOL      0.283437
    144 C47         7.0550    0.2570   -2.4220 c         1 MOL      0.366732
    145 O19         7.3810    1.3970   -2.6840 o         1 MOL     -0.528461
    146 C48         7.2440   -1.4610   -4.2860 c3        1 MOL     -0.341853
    147 H67         7.5300   -2.9610   -2.4240 hn        1 MOL      0.294962
    148 H68         8.8190   -0.6120   -3.0580 h1        1 MOL      0.039490
    149 H69         6.1560   -1.3080   -4.2880 hc        1 MOL      0.091191
    150 H70         7.6660   -0.7280   -4.9750 hc        1 MOL      0.091191
    151 H71         7.4860   -2.5180   -4.4340 hc        1 MOL      0.091191
    152 N14         5.9930    0.0440   -1.6450 n         1 MOL     -0.018540
    153 C49         5.2150    0.9840   -0.8680 c3        1 MOL     -0.186456
    154 C50         5.8500    1.3120    0.4820 c         1 MOL      0.506825
    155 O20         5.7190    2.4840    0.8800 o         1 MOL     -0.579313
    156 C51         3.6980    0.5160   -0.7410 c3        1 MOL     -0.120948
    157 C52         3.0250    0.9600   -1.9970 c3        1 MOL      0.053124
    158 C53         1.5020    0.8130   -1.8470 c         1 MOL      0.638582
    159 O21         0.9400    0.0030   -2.5640 o         1 MOL     -0.775025
    160 O22         0.9860    1.1200   -0.8070 o         1 MOL     -0.775025
    161 H72         5.8070   -0.9350   -1.4590 hn        1 MOL     -0.019935
    162 H73         5.2370    1.8760   -1.4930 h1        1 MOL      0.126456
    163 H74         3.3010    1.0650    0.1120 hc        1 MOL      0.088975
    164 H75         3.5110   -0.5370   -0.5140 hc        1 MOL      0.088975
    165 H76         3.3330    0.3660   -2.8580 hc        1 MOL     -0.012971
    166 H77         3.2280    1.9750   -2.3190 hc        1 MOL     -0.012971
    167 N15         6.5510    0.3950    1.2000 n         1 MOL     -0.083578
    168 C54         7.1350    0.6600    2.4790 c3        1 MOL     -0.196442
    169 H78         6.7790    1.6230    2.8480 h1        1 MOL      0.077120
    170 H79         6.8490   -0.1240    3.1800 h1        1 MOL      0.077120
    171 H80         8.2210    0.6860    2.3850 h1        1 MOL      0.077120
    172 H81         6.5090   -0.5620    0.8980 hn        1 MOL      0.135362
    173 Ca1        -1.3940    0.1670   -1.6180 Ca        1 MOL      1.800490
    174 O23        -0.6990   -2.5150   -2.1990 oh        1 MOL     -0.769857
    175 H82        -1.4430   -2.8230   -2.7100 ho        1 MOL      0.384599
    176 H83        -0.1980   -3.3000   -2.0020 ho        1 MOL      0.384599
    177 O24        -2.0750   -0.6490   -4.2360 oh        1 MOL     -0.769857
    178 H84        -1.5780   -0.9680   -4.9850 ho        1 MOL      0.384599
    179 H85        -2.8200   -0.1910   -4.6340 ho        1 MOL      0.384599
@<TRIPOS>BOND
     1    1    2 1   
     2    1    4 1   
     3    1    5 1   
     4    1    6 1   
     5    2    3 2   
     6    2    7 1   
     7    7    8 1   
     8    7   15 1   
     9    8    9 1   
    10    8   11 1   
    11    8   16 1   
    12    9   10 2   
    13    9   19 1   
    14   11   12 1   
    15   11   17 1   
    16   11   18 1   
    17   12   13 1   
    18   12   14 1   
    19   19   20 1   
    20   19   28 1   
    21   20   21 1   
    22   20   23 1   
    23   20   29 1   
    24   21   22 2   
    25   21   41 1   
    26   23   24 1   
    27   23   30 1   
    28   23   31 1   
    29   24   25 1   
    30   24   32 1   
    31   24   33 1   
    32   25   26 1   
    33   25   34 1   
    34   25   35 1   
    35   26   27 1   
    36   26   36 1   
    37   26   37 1   
    38   27   38 1   
    39   27   39 1   
    40   27   40 1   
    41   41   42 1   
    42   41   49 1   
    43   42   43 1   
    44   42   45 1   
    45   42   50 1   
    46   43   44 2   
    47   43   53 1   
    48   45   46 1   
    49   45   51 1   
    50   45   52 1   
    51   46   47 1   
    52   46   48 1   
    53   53   54 1   
    54   53   57 1   
    55   54   55 1   
    56   54   58 1   
    57   54   59 1   
    58   55   56 2   
    59   55   60 1   
    60   60   61 1   
    61   60   68 1   
    62   61   62 1   
    63   61   64 1   
    64   61   69 1   
    65   62   63 2   
    66   62   74 1   
    67   64   65 1   
    68   64   70 1   
    69   64   71 1   
    70   65   66 1   
    71   65   67 2   
    72   66   72 1   
    73   66   73 1   
    74   74   75 1   
    75   74   78 1   
    76   75   76 1   
    77   75   79 1   
    78   75   80 1   
    79   76   77 2   
    80   76   81 1   
    81   81   82 1   
    82   81   93 1   
    83   82   83 1   
    84   82   85 1   
    85   82   94 1   
    86   83   84 2   
    87   83  102 1   
    88   85   86 1   
    89   85   95 1   
    90   85   96 1   
    91   86   87 ar  
    92   86   88 ar  
    93   87   89 ar  
    94   87   97 1   
    95   88   90 ar  
    96   88   98 1   
    97   89   91 ar  
    98   89   99 1   
    99   90   91 ar  
   100   90  100 1   
   101   91   92 1   
   102   92  101 1   
   103  102  103 1   
   104  102  110 1   
   105  103  104 1   
   106  103  106 1   
   107  103  111 1   
   108  104  105 2   
   109  104  121 1   
   110  106  107 1   
   111  106  108 1   
   112  106  112 1   
   113  107  109 1   
   114  107  113 1   
   115  107  114 1   
   116  108  115 1   
   117  108  116 1   
   118  108  117 1   
   119  109  118 1   
   120  109  119 1   
   121  109  120 1   
   122  121  122 1   
   123  121  127 1   
   124  122  123 1   
   125  122  125 1   
   126  122  128 1   
   127  123  124 2   
   128  123  132 1   
   129  125  126 1   
   130  125  129 1   
   131  125  130 1   
   132  126  131 1   
   133  132  133 1   
   134  132  137 1   
   135  133  134 1   
   136  133  136 1   
   137  133  138 1   
   138  134  135 2   
   139  134  142 1   
   140  136  139 1   
   141  136  140 1   
   142  136  141 1   
   143  142  143 1   
   144  142  147 1   
   145  143  144 1   
   146  143  146 1   
   147  143  148 1   
   148  144  145 2   
   149  144  152 1   
   150  146  149 1   
   151  146  150 1   
   152  146  151 1   
   153  152  153 1   
   154  152  161 1   
   155  153  154 1   
   156  153  156 1   
   157  153  162 1   
   158  154  155 2   
   159  154  167 1   
   160  156  157 1   
   161  156  163 1   
   162  156  164 1   
   163  157  158 1   
   164  157  165 1   
   165  157  166 1   
   166  158  159 1   
   167  158  160 1   
   168  167  168 1   
   169  167  172 1   
   170  168  169 1   
   171  168  170 1   
   172  168  171 1   
   173  174  175 1   
   174  174  176 1   
   175  177  178 1   
   176  177  179 1   
@<TRIPOS>SUBSTRUCTURE
     1 MOL         1 TEMP              0 ****  ****    0 ROOT
