@<TRIPOS>MOLECULE
MOL
  179   176     1     0     0
SMALL
resp


@<TRIPOS>ATOM
      1 C1          2.0490    2.8750    7.0110 c3        1 MOL     -0.393491
      2 C2          1.9590    2.4850    5.4570 c         1 MOL      0.631829
      3 O1          3.0250    2.2170    4.8560 o         1 MOL     -0.525516
      4 H1          1.0470    2.8940    7.4390 hc        1 MOL      0.107554
      5 H2          2.6550    2.1370    7.5370 hc        1 MOL      0.107554
      6 H3          2.5060    3.8590    7.1130 hc        1 MOL      0.107554
      7 N1          0.7750    2.5790    4.8090 n         1 MOL     -0.495760
      8 C3          0.5590    2.4690    3.3460 c3        1 MOL     -0.007797
      9 C4          0.7910    3.7940    2.5420 c         1 MOL      0.648784
     10 O2          0.4460    4.8990    2.9740 o         1 MOL     -0.555335
     11 C5         -0.8360    1.9690    3.0090 c3        1 MOL     -0.138406
     12 C6         -1.0360    1.5450    1.5750 c         1 MOL      0.849670
     13 O3         -2.1130    1.8630    1.0510 o         1 MOL     -0.784871
     14 O4         -0.1610    0.9350    0.9580 o         1 MOL     -0.784871
     15 H4         -0.0150    2.7650    5.4150 hn        1 MOL      0.305639
     16 H5          1.2920    1.7450    3.0000 h1        1 MOL      0.016154
     17 H6         -1.6050    2.7410    3.1170 hc        1 MOL      0.043253
     18 H7         -1.0310    1.0900    3.6190 hc        1 MOL      0.043253
     19 N2          1.3010    3.6810    1.2840 n         1 MOL     -0.364349
     20 C7          1.8730    4.7290    0.3530 c3        1 MOL     -0.214285
     21 C8          0.7870    5.5390   -0.3810 c         1 MOL      0.598718
     22 O5          1.0290    6.6580   -0.9000 o         1 MOL     -0.584744
     23 C9          2.9380    4.1030   -0.6570 c3        1 MOL      0.016665
     24 C10         3.7520    5.2420   -1.3680 c3        1 MOL     -0.005917
     25 C11         4.9430    4.7350   -2.1150 c3        1 MOL      0.002777
     26 C12         5.7830    5.7650   -2.8370 c3        1 MOL      0.047709
     27 N3          7.1130    5.2870   -3.1930 n4        1 MOL     -0.373491
     28 H8          1.4430    2.7350    0.9640 hn        1 MOL      0.244399
     29 H9          2.4260    5.4380    0.9670 h1        1 MOL      0.145733
     30 H10         2.5720    3.4250   -1.4270 hc        1 MOL      0.040472
     31 H11         3.6450    3.4980   -0.0990 hc        1 MOL      0.040472
     32 H12         4.1440    5.9840   -0.6740 hc        1 MOL      0.021640
     33 H13         3.1350    5.8500   -2.0410 hc        1 MOL      0.021640
     34 H14         4.5720    4.0980   -2.9170 hc        1 MOL      0.029580
     35 H15         5.5070    4.0940   -1.4390 hc        1 MOL      0.029580
     36 H16         5.8030    6.5520   -2.0800 hx        1 MOL      0.077910
     37 H17         5.3120    6.1690   -3.7320 hx        1 MOL      0.077910
     38 H18         7.0690    4.4150   -3.7110 hn        1 MOL      0.332767
     39 H19         7.6580    6.0430   -3.5940 hn        1 MOL      0.332767
     40 H20         7.7100    5.0940   -2.4070 hn        1 MOL      0.332767
     41 N4         -0.4310    5.0540   -0.3740 n         1 MOL     -0.329185
     42 C13        -1.6100    5.6520   -0.9840 c3        1 MOL      0.006458
     43 C14        -2.9700    5.3450   -0.3400 c         1 MOL      0.368151
     44 O6         -3.9620    5.9720   -0.7510 o         1 MOL     -0.531750
     45 C15        -1.6310    5.1600   -2.4270 c3        1 MOL     -0.121222
     46 C16        -1.9080    3.6710   -2.6920 c         1 MOL      0.724855
     47 O7         -2.3080    2.9220   -1.7580 o         1 MOL     -0.726364
     48 O8         -1.5350    3.1410   -3.8020 o         1 MOL     -0.726364
     49 H21        -0.5950    4.1590    0.0680 hn        1 MOL      0.221894
     50 H22        -1.5440    6.7270   -1.1360 h1        1 MOL      0.125074
     51 H23        -0.6150    5.3780   -2.7830 hc        1 MOL      0.046257
     52 H24        -2.3320    5.7940   -2.9830 hc        1 MOL      0.046257
     53 N5         -3.1500    4.3630    0.5340 n         1 MOL     -0.082462
     54 C17        -4.3990    4.2430    1.3210 c3        1 MOL     -0.273822
     55 C18        -5.4110    3.1870    0.8820 c         1 MOL      0.792452
     56 O9         -6.3730    3.0150    1.5940 o         1 MOL     -0.633612
     57 H25        -2.4530    3.6540    0.6740 hn        1 MOL      0.091280
     58 H26        -4.9660    5.1710    1.2610 h1        1 MOL      0.120349
     59 H27        -4.1320    3.9750    2.3490 h1        1 MOL      0.120349
     60 N6         -5.2090    2.5790   -0.2580 n         1 MOL     -0.728246
     61 C19        -6.1900    1.9980   -1.1780 c3        1 MOL      0.170562
     62 C20        -6.8620    0.7520   -0.5330 c         1 MOL      0.312376
     63 O10        -7.5460    0.0950   -1.2760 o         1 MOL     -0.532365
     64 C21        -5.6000    1.6870   -2.5840 c3        1 MOL     -0.235467
     65 C22        -4.7890    0.3850   -2.5450 c         1 MOL      0.811732
     66 N7         -4.9630   -0.3830   -3.6260 n         1 MOL     -0.923565
     67 O11        -3.9500    0.1000   -1.7290 o         1 MOL     -0.626837
     68 H28        -4.2910    2.8430   -0.5940 hn        1 MOL      0.432942
     69 H29        -6.9690    2.7100   -1.4370 h1        1 MOL      0.103629
     70 H30        -4.9860    2.4770   -3.0170 hc        1 MOL      0.086885
     71 H31        -6.4290    1.5510   -3.2800 hc        1 MOL      0.086885
     72 H32        -5.5000   -0.0670   -4.4170 hn        1 MOL      0.397695
     73 H33        -4.5610   -1.3190   -3.6470 hn        1 MOL      0.397695
     74 N8         -6.7740    0.4930    0.7300 n         1 MOL     -0.062589
     75 C23        -7.1770   -0.6400    1.5730 c3        1 MOL     -0.343818
     76 C24        -6.1800   -1.7820    1.7420 c         1 MOL      0.601453
     77 O12        -6.5440   -2.7180    2.4320 o         1 MOL     -0.537460
     78 H34        -6.3970    1.2960    1.2130 hn        1 MOL      0.238247
     79 H35        -8.0680   -0.9990    1.0430 h1        1 MOL      0.147052
     80 H36        -7.4400   -0.2900    2.5640 h1        1 MOL      0.147052
     81 N9         -5.0270   -1.6870    1.1590 n         1 MOL     -0.403026
     82 C25        -4.0430   -2.7990    1.0260 c3        1 MOL      0.321747
     83 C26        -2.5890   -2.2750    1.0600 c         1 MOL      0.346055
     84 O13        -2.3520   -1.2630    0.4560 o         1 MOL     -0.439893
     85 C27        -4.2540   -3.5680   -0.2720 c3        1 MOL      0.054940
     86 C28        -5.6120   -4.3330   -0.4160 ca        1 MOL     -0.003796
     87 C29        -5.6260   -5.6920    0.0270 ca        1 MOL     -0.236587
     88 C30        -6.6950   -3.6220   -0.9510 ca        1 MOL     -0.236587
     89 C31        -6.8370   -6.3730   -0.1590 ca        1 MOL     -0.070492
     90 C32        -7.8630   -4.3810   -1.0720 ca        1 MOL     -0.070492
     91 C33        -7.9120   -5.7630   -0.7410 ca        1 MOL      0.128911
     92 O14        -9.1490   -6.4580   -0.7550 oh        1 MOL     -0.451857
     93 H37        -4.8530   -0.8550    0.6080 hn        1 MOL      0.156818
     94 H38        -4.3040   -3.3640    1.9160 h1        1 MOL     -0.004498
     95 H39        -3.4570   -4.3060   -0.3240 hc        1 MOL     -0.003348
     96 H40        -4.0370   -2.9850   -1.1660 hc        1 MOL     -0.003348
     97 H41        -4.7480   -5.9940    0.5730 ha        1 MOL      0.158645
     98 H42        -6.6520   -2.5810   -1.2400 ha        1 MOL      0.158645
     99 H43        -6.9810   -7.4010    0.1380 ha        1 MOL      0.112873
    100 H44        -8.7680   -3.8710   -1.3680 ha        1 MOL      0.112873
    101 H45        -9.7310   -5.9660   -1.3370 ho        1 MOL      0.341434
    102 N10        -1.6080   -2.9370    1.6810 n         1 MOL     -0.524727
    103 C34        -0.1300   -2.6400    1.5190 c3        1 MOL      0.202566
    104 C35         0.6210   -3.8810    0.8200 c         1 MOL      0.357213
    105 O15         0.2380   -5.0990    1.0960 o         1 MOL     -0.541707
    106 C36         0.6300   -2.2310    2.8540 c3        1 MOL      0.079644
    107 C37         1.9320   -1.4100    2.6640 c3        1 MOL      0.222441
    108 C38         0.8380   -3.3230    3.9490 c3        1 MOL     -0.175563
    109 C39         2.5130   -0.8050    3.8920 c3        1 MOL     -0.320142
    110 H46        -1.8530   -3.6890    2.3070 hn        1 MOL      0.300153
    111 H47         0.0030   -1.7790    0.8650 h1        1 MOL      0.029897
    112 H48        -0.0210   -1.5170    3.3460 hc        1 MOL      0.036768
    113 H49         1.7130   -0.5340    2.0490 hc        1 MOL     -0.116300
    114 H50         2.6410   -2.0250    2.1300 hc        1 MOL     -0.116300
    115 H51         1.8130   -3.7720    3.7770 hc        1 MOL      0.034506
    116 H52         0.9660   -2.7780    4.8850 hc        1 MOL      0.034506
    117 H53         0.0500   -4.0830    3.9490 hc        1 MOL      0.034506
    118 H54         1.7190   -0.2580    4.3960 hc        1 MOL      0.077462
    119 H55         3.0170   -1.5640    4.4990 hc        1 MOL      0.077462
    120 H56         3.2740   -0.0620    3.6630 hc        1 MOL      0.077462
    121 N11         1.7040   -3.5530    0.1160 n         1 MOL     -0.069378
    122 C40         2.5890   -4.4970   -0.6200 c3        1 MOL     -0.109665
    123 C41         4.0490   -4.3550   -0.3200 c         1 MOL      0.570123
    124 O16         4.5530   -3.4780    0.4340 o         1 MOL     -0.479778
    125 C42         2.1670   -4.2210   -2.1100 c3        1 MOL     -0.097615
    126 O17         2.5410   -2.9090   -2.4310 oh        1 MOL     -0.535439
    127 H57         1.7660   -2.5730   -0.1030 hn        1 MOL      0.098066
    128 H58         2.2910   -5.5080   -0.3510 h1        1 MOL      0.076277
    129 H59         1.0950   -4.3290   -2.3000 h1        1 MOL      0.093963
    130 H60         2.7830   -4.8290   -2.7710 h1        1 MOL      0.093963
    131 H61         1.8260   -2.3550   -2.1080 ho        1 MOL      0.385689
    132 N12         4.8090   -5.3180   -0.7840 n         1 MOL     -0.428171
    133 C43         6.2690   -5.4060   -0.4300 c3        1 MOL      0.114496
    134 C44         7.0020   -4.0720   -0.6380 c         1 MOL      0.497771
    135 O18         7.5470   -3.5450    0.2900 o         1 MOL     -0.493805
    136 C45         6.9920   -6.4930   -1.2440 c3        1 MOL     -0.327571
    137 H62         4.3930   -6.0050   -1.3950 hn        1 MOL      0.297245
    138 H63         6.3850   -5.6210    0.6260 h1        1 MOL      0.093044
    139 H64         6.8410   -6.3550   -2.3170 hc        1 MOL      0.100494
    140 H65         8.0430   -6.6200   -0.9950 hc        1 MOL      0.100494
    141 H66         6.5540   -7.4730   -1.0510 hc        1 MOL      0.100494
    142 N13         7.0190   -3.3550   -1.8220 n         1 MOL     -0.487237
    143 C46         7.6900   -2.0710   -2.0470 c3        1 MOL      0.228487
    144 C47         7.1200   -0.9240   -1.1790 c         1 MOL      0.369768
    145 O19         7.8840   -0.1070   -0.6960 o         1 MOL     -0.531662
    146 C48         7.6960   -1.7290   -3.6000 c3        1 MOL     -0.358086
    147 H67         6.5490   -3.7260   -2.6320 hn        1 MOL      0.273221
    148 H68         8.7090   -2.1800   -1.6890 h1        1 MOL      0.056388
    149 H69         7.7380   -2.6970   -4.1080 hc        1 MOL      0.098422
    150 H70         6.9530   -0.9810   -3.8470 hc        1 MOL      0.098422
    151 H71         8.6850   -1.3250   -3.8020 hc        1 MOL      0.098422
    152 N14         5.8130   -0.9100   -0.9380 n         1 MOL     -0.155585
    153 C49         5.2180    0.0510   -0.0700 c3        1 MOL     -0.238029
    154 C50         5.6810   -0.2210    1.3770 c         1 MOL      0.550677
    155 O20         5.9190    0.7590    2.0750 o         1 MOL     -0.585945
    156 C51         3.7020    0.0230   -0.2320 c3        1 MOL     -0.294101
    157 C52         3.1570    0.4330   -1.6460 c3        1 MOL      0.122485
    158 C53         1.6750    0.1860   -1.7800 c         1 MOL      0.569351
    159 O21         1.1300   -0.9210   -1.5180 o         1 MOL     -0.654547
    160 O22         0.9110    1.1940   -1.8800 o         1 MOL     -0.654547
    161 H72         5.3210   -1.6230   -1.4410 hn        1 MOL      0.193480
    162 H73         5.4760    1.0840   -0.3190 h1        1 MOL      0.111835
    163 H74         3.3580    0.7750    0.4740 hc        1 MOL      0.215706
    164 H75         3.3420   -0.9960   -0.0930 hc        1 MOL      0.215706
    165 H76         3.6160   -0.1000   -2.4810 hc        1 MOL     -0.045671
    166 H77         3.3720    1.4750   -1.9310 hc        1 MOL     -0.045671
    167 N15         5.8440   -1.4320    1.8570 n         1 MOL      0.001494
    168 C54         6.5980   -1.7630    3.0560 c3        1 MOL     -0.250231
    169 H78         5.9320   -1.7400    3.9200 h1        1 MOL      0.096464
    170 H79         7.0250   -2.7610    2.9540 h1        1 MOL      0.096464
    171 H80         7.3980   -1.0360    3.1960 h1        1 MOL      0.096464
    172 H81         5.5450   -2.0930    1.1680 hn        1 MOL      0.125687
    173 Ca1        -1.4120    0.4910   -1.2510 Ca        1 MOL      1.732079
    174 O23        -1.6280    0.6430   -3.9510 oh        1 MOL     -0.860030
    175 H82        -1.8110    0.1760   -4.7690 ho        1 MOL      0.410606
    176 H83        -1.5450    1.5560   -4.2130 ho        1 MOL      0.410606
    177 O24        -1.3790   -2.0270   -2.4450 oh        1 MOL     -0.860030
    178 H84        -1.0130   -2.2350   -3.2990 ho        1 MOL      0.410606
    179 H85        -1.5060   -2.8780   -2.0170 ho        1 MOL      0.410606
@<TRIPOS>BOND
     1    1    2 1   
     2    1    4 1   
     3    1    5 1   
     4    1    6 1   
     5    2    3 2   
     6    2    7 1   
     7    7    8 1   
     8    7   15 1   
     9    8    9 1   
    10    8   11 1   
    11    8   16 1   
    12    9   10 2   
    13    9   19 1   
    14   11   12 1   
    15   11   17 1   
    16   11   18 1   
    17   12   13 1   
    18   12   14 1   
    19   19   20 1   
    20   19   28 1   
    21   20   21 1   
    22   20   23 1   
    23   20   29 1   
    24   21   22 2   
    25   21   41 1   
    26   23   24 1   
    27   23   30 1   
    28   23   31 1   
    29   24   25 1   
    30   24   32 1   
    31   24   33 1   
    32   25   26 1   
    33   25   34 1   
    34   25   35 1   
    35   26   27 1   
    36   26   36 1   
    37   26   37 1   
    38   27   38 1   
    39   27   39 1   
    40   27   40 1   
    41   41   42 1   
    42   41   49 1   
    43   42   43 1   
    44   42   45 1   
    45   42   50 1   
    46   43   44 2   
    47   43   53 1   
    48   45   46 1   
    49   45   51 1   
    50   45   52 1   
    51   46   47 1   
    52   46   48 1   
    53   53   54 1   
    54   53   57 1   
    55   54   55 1   
    56   54   58 1   
    57   54   59 1   
    58   55   56 2   
    59   55   60 1   
    60   60   61 1   
    61   60   68 1   
    62   61   62 1   
    63   61   64 1   
    64   61   69 1   
    65   62   63 2   
    66   62   74 1   
    67   64   65 1   
    68   64   70 1   
    69   64   71 1   
    70   65   66 1   
    71   65   67 2   
    72   66   72 1   
    73   66   73 1   
    74   74   75 1   
    75   74   78 1   
    76   75   76 1   
    77   75   79 1   
    78   75   80 1   
    79   76   77 2   
    80   76   81 1   
    81   81   82 1   
    82   81   93 1   
    83   82   83 1   
    84   82   85 1   
    85   82   94 1   
    86   83   84 2   
    87   83  102 1   
    88   85   86 1   
    89   85   95 1   
    90   85   96 1   
    91   86   87 ar  
    92   86   88 ar  
    93   87   89 ar  
    94   87   97 1   
    95   88   90 ar  
    96   88   98 1   
    97   89   91 ar  
    98   89   99 1   
    99   90   91 ar  
   100   90  100 1   
   101   91   92 1   
   102   92  101 1   
   103  102  103 1   
   104  102  110 1   
   105  103  104 1   
   106  103  106 1   
   107  103  111 1   
   108  104  105 2   
   109  104  121 1   
   110  106  107 1   
   111  106  108 1   
   112  106  112 1   
   113  107  109 1   
   114  107  113 1   
   115  107  114 1   
   116  108  115 1   
   117  108  116 1   
   118  108  117 1   
   119  109  118 1   
   120  109  119 1   
   121  109  120 1   
   122  121  122 1   
   123  121  127 1   
   124  122  123 1   
   125  122  125 1   
   126  122  128 1   
   127  123  124 2   
   128  123  132 1   
   129  125  126 1   
   130  125  129 1   
   131  125  130 1   
   132  126  131 1   
   133  132  133 1   
   134  132  137 1   
   135  133  134 1   
   136  133  136 1   
   137  133  138 1   
   138  134  135 2   
   139  134  142 1   
   140  136  139 1   
   141  136  140 1   
   142  136  141 1   
   143  142  143 1   
   144  142  147 1   
   145  143  144 1   
   146  143  146 1   
   147  143  148 1   
   148  144  145 2   
   149  144  152 1   
   150  146  149 1   
   151  146  150 1   
   152  146  151 1   
   153  152  153 1   
   154  152  161 1   
   155  153  154 1   
   156  153  156 1   
   157  153  162 1   
   158  154  155 2   
   159  154  167 1   
   160  156  157 1   
   161  156  163 1   
   162  156  164 1   
   163  157  158 1   
   164  157  165 1   
   165  157  166 1   
   166  158  159 1   
   167  158  160 1   
   168  167  168 1   
   169  167  172 1   
   170  168  169 1   
   171  168  170 1   
   172  168  171 1   
   173  174  175 1   
   174  174  176 1   
   175  177  178 1   
   176  177  179 1   
@<TRIPOS>SUBSTRUCTURE
     1 MOL         1 TEMP              0 ****  ****    0 ROOT
