@<TRIPOS>MOLECULE
MOL
  175   173     1     0     0
SMALL
resp


@<TRIPOS>ATOM
      1 C1          0.6410    4.3190    5.3530 c3        1 MOL     -0.427959
      2 C2         -0.0610    4.0900    3.9650 c         1 MOL      0.679276
      3 O1          0.6080    4.2750    2.9410 o         1 MOL     -0.504253
      4 H1          0.1040    5.0880    5.9070 hc        1 MOL      0.105965
      5 H2          0.6330    3.3890    5.9220 hc        1 MOL      0.105965
      6 H3          1.6700    4.6390    5.1920 hc        1 MOL      0.105965
      7 N1         -1.3750    3.7800    4.0270 n         1 MOL     -0.662609
      8 C3         -2.0580    3.5540    2.7350 c3        1 MOL      0.219299
      9 C4         -2.0910    4.7730    1.7740 c         1 MOL      0.571876
     10 O2         -2.1630    5.9340    2.1690 o         1 MOL     -0.571572
     11 C5         -3.5030    3.0660    2.9900 c3        1 MOL     -0.408322
     12 C6         -4.1910    2.5110    1.7560 c         1 MOL      0.836604
     13 O3         -5.3990    2.1780    1.8020 o         1 MOL     -0.728995
     14 O4         -3.6070    2.1810    0.7350 o         1 MOL     -0.728995
     15 H4         -1.8600    3.5310    4.8760 hn        1 MOL      0.350621
     16 H5         -1.6010    2.7010    2.2220 h1        1 MOL      0.048339
     17 H6         -4.0830    3.8600    3.4640 hc        1 MOL      0.098948
     18 H7         -3.3810    2.2720    3.7170 hc        1 MOL      0.098948
     19 N2         -2.2890    4.5630    0.4590 n         1 MOL     -0.613043
     20 C7         -2.6050    5.5380   -0.5880 c3        1 MOL      0.461778
     21 C8         -3.6700    5.1010   -1.6410 c         1 MOL      0.381821
     22 O5         -3.8340    5.8620   -2.6060 o         1 MOL     -0.563094
     23 C9         -1.3390    5.9260   -1.3770 c3        1 MOL     -0.318595
     24 H8         -2.1960    3.5950    0.1880 hn        1 MOL      0.336030
     25 H9         -3.0780    6.4130   -0.1540 h1        1 MOL     -0.012819
     26 H10        -0.5660    6.2760   -0.6910 hc        1 MOL      0.076482
     27 H11        -0.9690    5.1550   -2.0570 hc        1 MOL      0.076482
     28 H12        -1.4710    6.8830   -1.8840 hc        1 MOL      0.076482
     29 N3         -4.2480    3.9000   -1.5870 n         1 MOL     -0.442839
     30 C10        -5.0150    3.3290   -2.7370 c3        1 MOL      0.135850
     31 C11        -6.0370    2.1980   -2.3760 c         1 MOL      0.359290
     32 O6         -6.6890    1.7140   -3.3210 o         1 MOL     -0.531687
     33 C12        -4.0110    2.7350   -3.6950 c3        1 MOL     -0.134919
     34 C13        -2.9800    1.7870   -3.0560 c         1 MOL      0.791033
     35 O7         -1.8820    1.7810   -3.6260 o         1 MOL     -0.710477
     36 O8         -3.2540    1.0380   -2.1160 o         1 MOL     -0.710477
     37 H13        -3.9870    3.3680   -0.7630 hn        1 MOL      0.227906
     38 H14        -5.6360    4.0810   -3.2340 h1        1 MOL      0.076706
     39 H15        -3.5350    3.5740   -4.1920 hc        1 MOL      0.021344
     40 H16        -4.5810    2.2190   -4.4730 hc        1 MOL      0.021344
     41 N4         -6.2020    1.7710   -1.1100 n         1 MOL     -0.210252
     42 C14        -7.4090    1.0650   -0.7080 c3        1 MOL     -0.172782
     43 C15        -7.5010   -0.3930   -1.1170 c         1 MOL      0.479677
     44 O9         -8.5130   -1.0460   -0.8660 o         1 MOL     -0.604694
     45 H17        -5.5700    2.0600   -0.3700 hn        1 MOL      0.195143
     46 H18        -8.3450    1.6030   -0.8700 h1        1 MOL      0.111080
     47 H19        -7.2400    0.9690    0.3650 h1        1 MOL      0.111080
     48 N5         -6.4090   -1.0260   -1.6110 n         1 MOL     -0.115615
     49 C16        -6.3690   -2.3710   -2.0390 c3        1 MOL     -0.129810
     50 C17        -6.2280   -3.4560   -0.9200 c         1 MOL      0.409567
     51 O10        -5.9520   -4.6490   -1.2490 o         1 MOL     -0.504703
     52 C18        -5.1890   -2.3880   -2.9940 c3        1 MOL     -0.024470
     53 C19        -3.8040   -2.0270   -2.4250 c         1 MOL      0.482184
     54 N6         -2.8680   -1.8330   -3.3120 n         1 MOL     -0.595177
     55 O11        -3.5560   -1.9030   -1.2380 o         1 MOL     -0.375439
     56 H20        -5.5690   -0.4880   -1.7660 hn        1 MOL      0.135236
     57 H21        -7.2560   -2.6070   -2.6290 h1        1 MOL      0.120789
     58 H22        -5.3970   -1.7580   -3.8590 hc        1 MOL      0.031354
     59 H23        -5.0480   -3.3700   -3.4400 hc        1 MOL      0.031354
     60 H24        -3.1010   -1.8970   -4.2940 hn        1 MOL      0.314091
     61 H25        -1.8810   -1.7370   -3.1050 hn        1 MOL      0.314091
     62 N7         -6.3460   -3.1030    0.3620 n         1 MOL     -0.195860
     63 C20        -6.2750   -4.1070    1.4670 c3        1 MOL     -0.289474
     64 C21        -4.8450   -4.5510    1.7700 c         1 MOL      0.535280
     65 O12        -4.6990   -5.5050    2.5750 o         1 MOL     -0.587893
     66 H26        -6.6330   -2.1460    0.5400 hn        1 MOL      0.244740
     67 H27        -6.8330   -4.9880    1.1510 h1        1 MOL      0.143712
     68 H28        -6.7020   -3.7130    2.3790 h1        1 MOL      0.143712
     69 N8         -3.8100   -3.8740    1.3650 n         1 MOL     -0.085907
     70 C22        -2.4290   -4.4040    1.4530 c3        1 MOL     -0.333715
     71 C23        -1.3100   -3.3300    1.5810 c         1 MOL      0.557708
     72 O13        -1.3580   -2.3750    0.8630 o         1 MOL     -0.365312
     73 C24        -2.0670   -5.1900    0.1670 c3        1 MOL      0.444867
     74 C25        -2.7070   -6.6070    0.0350 c3        1 MOL     -0.355588
     75 O14        -2.3800   -4.5700   -0.9890 oh        1 MOL     -0.466872
     76 H29        -4.0140   -3.0710    0.7910 hn        1 MOL      0.007508
     77 H30        -2.3910   -4.9170    2.4190 h1        1 MOL      0.134174
     78 H31        -0.9880   -5.3890    0.1010 h1        1 MOL      0.010242
     79 H32        -2.4540   -3.6480   -0.7100 ho        1 MOL      0.214894
     80 H33        -2.3220   -7.2780    0.8100 hc        1 MOL      0.083359
     81 H34        -3.7690   -6.5520    0.2600 hc        1 MOL      0.083359
     82 H35        -2.4810   -7.0590   -0.9250 hc        1 MOL      0.083359
     83 N9         -0.2890   -3.6230    2.3810 n         1 MOL     -0.637179
     84 C26         0.9090   -2.8170    2.2690 c3        1 MOL     -0.046842
     85 C27         1.6580   -3.1050    0.9120 c         1 MOL      0.440216
     86 O15         2.1380   -4.2150    0.5250 o         1 MOL     -0.586471
     87 C28         1.8810   -3.0450    3.3940 c3        1 MOL      0.190528
     88 C29         1.1430   -2.5110    4.6340 c3        1 MOL      0.007184
     89 C30         3.2390   -2.3330    3.1330 c3        1 MOL     -0.267670
     90 C31         2.0960   -2.4180    5.8840 c3        1 MOL     -0.116216
     91 H36        -0.3080   -4.4340    2.9790 hn        1 MOL      0.374382
     92 H37         0.5750   -1.7830    2.1790 h1        1 MOL      0.130429
     93 H38         1.9560   -4.1110    3.5970 hc        1 MOL     -0.001892
     94 H39         0.3540   -3.2300    4.8600 hc        1 MOL     -0.005837
     95 H40         0.7820   -1.5070    4.4190 hc        1 MOL     -0.005837
     96 H41         3.7410   -2.9490    2.3930 hc        1 MOL      0.061365
     97 H42         3.0760   -1.3020    2.8190 hc        1 MOL      0.061365
     98 H43         3.8760   -2.3350    4.0300 hc        1 MOL      0.061365
     99 H44         1.5210   -2.3360    6.8030 hc        1 MOL      0.021743
    100 H45         2.7390   -3.2910    6.0170 hc        1 MOL      0.021743
    101 H46         2.7450   -1.5570    5.7230 hc        1 MOL      0.021743
    102 N10         1.7980   -2.0680    0.0890 n         1 MOL     -0.008683
    103 C32         2.5920   -1.8610   -1.1000 c3        1 MOL      0.150358
    104 C33         4.0360   -1.5370   -0.6570 c         1 MOL      0.222541
    105 O16         4.3090   -1.0550    0.4800 o         1 MOL     -0.254077
    106 C34         1.8910   -0.8730   -2.0600 c3        1 MOL     -0.427228
    107 C35         0.4500   -1.2510   -2.5490 c         1 MOL      0.777276
    108 O17         0.4200   -2.0180   -3.5680 o         1 MOL     -0.683810
    109 O18        -0.5500   -0.9010   -1.8860 o         1 MOL     -0.683810
    110 H47         1.3100   -1.2340    0.4110 hn        1 MOL     -0.110136
    111 H48         2.6270   -2.8430   -1.5640 h1        1 MOL      0.053724
    112 H49         2.5700   -0.6980   -2.8850 hc        1 MOL      0.133256
    113 H50         1.8400    0.0560   -1.4870 hc        1 MOL      0.133256
    114 N11         4.9830   -1.6800   -1.6290 n         1 MOL     -0.368172
    115 C36         6.4000   -1.4400   -1.5100 c3        1 MOL      0.203110
    116 C37         6.7640    0.0210   -1.1260 c         1 MOL      0.435689
    117 O19         7.5420    0.2150   -0.1250 o         1 MOL     -0.495766
    118 C38         7.1170   -2.0410   -2.7410 c3        1 MOL     -0.146831
    119 C39         8.6230   -1.8700   -2.6920 ca        1 MOL      0.030574
    120 C40         9.1980   -0.7020   -3.1250 ca        1 MOL     -0.134983
    121 C41         9.3770   -2.8290   -1.9990 ca        1 MOL     -0.134983
    122 C42        10.5950   -0.5050   -2.9790 ca        1 MOL     -0.140096
    123 C43        10.7280   -2.5300   -1.7300 ca        1 MOL     -0.140096
    124 C44        11.3760   -1.3590   -2.1610 ca        1 MOL     -0.075078
    125 H51         4.6910   -2.1850   -2.4610 hn        1 MOL      0.254402
    126 H52         6.7220   -2.0630   -0.6720 h1        1 MOL      0.046958
    127 H53         6.7420   -1.5440   -3.6370 hc        1 MOL      0.062270
    128 H54         6.9710   -3.1180   -2.7620 hc        1 MOL      0.062270
    129 H55         8.5850   -0.0180   -3.6840 ha        1 MOL      0.121113
    130 H56         8.9770   -3.7510   -1.6030 ha        1 MOL      0.121113
    131 H57        11.0670    0.3980   -3.3420 ha        1 MOL      0.104981
    132 H58        11.3200   -3.2600   -1.1910 ha        1 MOL      0.104981
    133 H59        12.3890   -1.0820   -1.9510 ha        1 MOL      0.107051
    134 N12         6.2420    1.1360   -1.8090 n         1 MOL     -0.175764
    135 C45         6.4350    2.5400   -1.3590 c3        1 MOL     -0.051557
    136 C46         5.8450    2.7270    0.0290 c         1 MOL      0.396203
    137 O20         6.3280    3.6010    0.7720 o         1 MOL     -0.511297
    138 C47         5.8050    3.4500   -2.4260 c3        1 MOL     -0.147074
    139 C48         4.7220    2.5550   -3.0390 c3        1 MOL      0.010703
    140 C49         5.2220    1.0640   -2.8930 c3        1 MOL      0.086293
    141 H60         7.5040    2.7050   -1.2400 h1        1 MOL      0.093627
    142 H61         5.4360    4.3540   -1.9620 hc        1 MOL      0.074962
    143 H62         6.4240    3.7080   -3.2880 hc        1 MOL      0.074962
    144 H63         3.7250    2.6180   -2.6140 hc        1 MOL      0.031340
    145 H64         4.6670    2.8030   -4.0990 hc        1 MOL      0.031340
    146 H65         4.3920    0.3680   -2.8290 h1        1 MOL     -0.017592
    147 H66         5.7690    0.7710   -3.7910 h1        1 MOL     -0.017592
    148 N13         4.8500    1.9010    0.4620 n         1 MOL     -0.124516
    149 C50         4.1590    1.9170    1.8090 c3        1 MOL     -0.143696
    150 C51         4.9490    1.2260    2.8610 c         1 MOL      0.444075
    151 O21         5.0470    1.6700    4.0060 o         1 MOL     -0.572012
    152 C52         2.6760    1.6080    1.8270 c3        1 MOL     -0.118384
    153 C53         1.7610    2.1460    0.6620 c3        1 MOL      0.131345
    154 C54         0.4280    1.4570    0.5820 c         1 MOL      0.624906
    155 O22        -0.4900    2.0100   -0.0600 o         1 MOL     -0.737736
    156 O23         0.2180    0.2950    1.0080 o         1 MOL     -0.737736
    157 H67         4.4130    1.3290   -0.2410 hn        1 MOL      0.141250
    158 H68         4.1310    2.9630    2.1350 h1        1 MOL      0.113061
    159 H69         2.2220    1.7190    2.8070 hc        1 MOL      0.080296
    160 H70         2.5260    0.5360    1.7820 hc        1 MOL      0.080296
    161 H71         2.2620    2.1710   -0.3070 hc        1 MOL     -0.001274
    162 H72         1.5460    3.1960    0.8710 hc        1 MOL     -0.001274
    163 N14         5.7220    0.1900    2.5040 n         1 MOL     -0.007140
    164 C55         6.7950   -0.4240    3.2580 c3        1 MOL     -0.081284
    165 H73         7.0540    0.2130    4.1050 h1        1 MOL      0.037985
    166 H74         6.4730   -1.3990    3.6230 h1        1 MOL      0.037985
    167 H75         7.6680   -0.5470    2.6170 h1        1 MOL      0.037985
    168 H76         5.5130   -0.2510    1.6250 hn        1 MOL      0.023255
    169 Ca1        -2.1470    0.0970   -0.0550 Ca        1 MOL      1.695209
    170 O24        -1.8440    0.0380    2.8320 oh        1 MOL     -0.819836
    171 H77        -0.8940   -0.0480    2.9360 ho        1 MOL      0.397634
    172 H78        -2.1680    0.3230    3.6760 ho        1 MOL      0.397634
    173 O25        -4.6090   -0.6120    1.1180 oh        1 MOL     -0.819836
    174 H79        -5.1230   -1.0440    1.7950 ho        1 MOL      0.397634
    175 H80        -4.8190    0.3160    1.2070 ho        1 MOL      0.397634
@<TRIPOS>BOND
     1    1    2 1   
     2    1    4 1   
     3    1    5 1   
     4    1    6 1   
     5    2    3 2   
     6    2    7 1   
     7    7    8 1   
     8    7   15 1   
     9    8    9 1   
    10    8   11 1   
    11    8   16 1   
    12    9   10 2   
    13    9   19 1   
    14   11   12 1   
    15   11   17 1   
    16   11   18 1   
    17   12   13 1   
    18   12   14 1   
    19   19   20 1   
    20   19   24 1   
    21   20   21 1   
    22   20   23 1   
    23   20   25 1   
    24   21   22 2   
    25   21   29 1   
    26   23   26 1   
    27   23   27 1   
    28   23   28 1   
    29   29   30 1   
    30   29   37 1   
    31   30   31 1   
    32   30   33 1   
    33   30   38 1   
    34   31   32 2   
    35   31   41 1   
    36   33   34 1   
    37   33   39 1   
    38   33   40 1   
    39   34   35 1   
    40   34   36 1   
    41   41   42 1   
    42   41   45 1   
    43   42   43 1   
    44   42   46 1   
    45   42   47 1   
    46   43   44 2   
    47   43   48 1   
    48   48   49 1   
    49   48   56 1   
    50   49   50 1   
    51   49   52 1   
    52   49   57 1   
    53   50   51 2   
    54   50   62 1   
    55   52   53 1   
    56   52   58 1   
    57   52   59 1   
    58   53   54 1   
    59   53   55 2   
    60   54   60 1   
    61   54   61 1   
    62   62   63 1   
    63   62   66 1   
    64   63   64 1   
    65   63   67 1   
    66   63   68 1   
    67   64   65 2   
    68   64   69 1   
    69   69   70 1   
    70   69   76 1   
    71   70   71 1   
    72   70   73 1   
    73   70   77 1   
    74   71   72 2   
    75   71   83 1   
    76   73   74 1   
    77   73   75 1   
    78   73   78 1   
    79   74   80 1   
    80   74   81 1   
    81   74   82 1   
    82   75   79 1   
    83   83   84 1   
    84   83   91 1   
    85   84   85 1   
    86   84   87 1   
    87   84   92 1   
    88   85   86 2   
    89   85  102 1   
    90   87   88 1   
    91   87   89 1   
    92   87   93 1   
    93   88   90 1   
    94   88   94 1   
    95   88   95 1   
    96   89   96 1   
    97   89   97 1   
    98   89   98 1   
    99   90   99 1   
   100   90  100 1   
   101   90  101 1   
   102  102  103 1   
   103  102  110 1   
   104  103  104 1   
   105  103  106 1   
   106  103  111 1   
   107  104  105 2   
   108  104  114 1   
   109  106  107 1   
   110  106  112 1   
   111  106  113 1   
   112  107  108 1   
   113  107  109 1   
   114  114  115 1   
   115  114  125 1   
   116  115  116 1   
   117  115  118 1   
   118  115  126 1   
   119  116  117 2   
   120  116  134 1   
   121  118  119 1   
   122  118  127 1   
   123  118  128 1   
   124  119  120 ar  
   125  119  121 ar  
   126  120  122 ar  
   127  120  129 1   
   128  121  123 ar  
   129  121  130 1   
   130  122  124 ar  
   131  122  131 1   
   132  123  124 ar  
   133  123  132 1   
   134  124  133 1   
   135  134  135 1   
   136  134  140 1   
   137  135  136 1   
   138  135  138 1   
   139  135  141 1   
   140  136  137 2   
   141  136  148 1   
   142  138  139 1   
   143  138  142 1   
   144  138  143 1   
   145  139  140 1   
   146  139  144 1   
   147  139  145 1   
   148  140  146 1   
   149  140  147 1   
   150  148  149 1   
   151  148  157 1   
   152  149  150 1   
   153  149  152 1   
   154  149  158 1   
   155  150  151 2   
   156  150  163 1   
   157  152  153 1   
   158  152  159 1   
   159  152  160 1   
   160  153  154 1   
   161  153  161 1   
   162  153  162 1   
   163  154  155 1   
   164  154  156 1   
   165  163  164 1   
   166  163  168 1   
   167  164  165 1   
   168  164  166 1   
   169  164  167 1   
   170  170  171 1   
   171  170  172 1   
   172  173  174 1   
   173  173  175 1   
@<TRIPOS>SUBSTRUCTURE
     1 MOL         1 TEMP              0 ****  ****    0 ROOT
