@<TRIPOS>MOLECULE
MOL
  179   176     1     0     0
SMALL
resp


@<TRIPOS>ATOM
      1 C1          1.3780    2.4560    6.4780 c3        1 MOL     -0.325325
      2 C2          1.2410    2.0440    5.0100 c         1 MOL      0.759348
      3 O1          2.2200    1.8240    4.3230 o         1 MOL     -0.591039
      4 H1          1.9140    3.4030    6.5410 hc        1 MOL      0.079227
      5 H2          0.3880    2.5700    6.9190 hc        1 MOL      0.079227
      6 H3          1.9320    1.6890    7.0210 hc        1 MOL      0.079227
      7 N1          0.0000    2.0760    4.5270 n         1 MOL     -0.620970
      8 C3         -0.3620    2.0150    3.0970 c3        1 MOL     -0.041607
      9 C4         -0.1600    3.3840    2.4210 c         1 MOL      0.801384
     10 O2         -0.6090    4.3920    2.8970 o         1 MOL     -0.600599
     11 C5         -1.8080    1.5290    3.0170 c3        1 MOL     -0.075711
     12 C6         -2.4070    1.3210    1.6550 c         1 MOL      0.879592
     13 O3         -1.8620    1.7310    0.6370 o         1 MOL     -0.818476
     14 O4         -3.5320    0.7770    1.6130 o         1 MOL     -0.818476
     15 H4         -0.7270    2.1330    5.2310 hn        1 MOL      0.336767
     16 H5          0.2520    1.2930    2.5560 h1        1 MOL      0.038378
     17 H6         -2.4100    2.1480    3.6850 hc        1 MOL      0.024702
     18 H7         -1.8290    0.5440    3.4890 hc        1 MOL      0.024702
     19 N2          0.4980    3.4190    1.2460 n         1 MOL     -0.579716
     20 C7          1.0350    4.6690    0.5700 c3        1 MOL     -0.093610
     21 C8          0.0140    5.6080   -0.0840 c         1 MOL      0.566466
     22 O5          0.2820    6.7880   -0.3880 o         1 MOL     -0.581683
     23 C9          2.0920    4.2060   -0.4570 c3        1 MOL      0.212087
     24 C10         3.2580    5.2840   -0.4980 c3        1 MOL     -0.116601
     25 C11         4.3230    4.7720   -1.5140 c3        1 MOL     -0.025099
     26 C12         5.4250    5.8790   -1.6180 c3        1 MOL      0.010155
     27 N3          6.5250    5.5420   -2.5870 n4        1 MOL     -0.307393
     28 H8          0.7290    2.5310    0.8330 hn        1 MOL      0.300063
     29 H9          1.5050    5.2820    1.3380 h1        1 MOL      0.105591
     30 H10         1.6530    4.1550   -1.4490 hc        1 MOL      0.015942
     31 H11         2.5210    3.2800   -0.0730 hc        1 MOL      0.015942
     32 H12         3.6330    5.5920    0.4770 hc        1 MOL      0.037500
     33 H13         2.8230    6.2220   -0.8330 hc        1 MOL      0.037500
     34 H14         3.8990    4.4890   -2.4810 hc        1 MOL      0.044813
     35 H15         4.7900    3.9020   -1.0640 hc        1 MOL      0.044813
     36 H16         5.8300    5.9980   -0.6090 hx        1 MOL      0.089108
     37 H17         4.9040    6.7620   -1.9830 hx        1 MOL      0.089108
     38 H18         7.2220    6.2730   -2.5410 hn        1 MOL      0.312065
     39 H19         6.9510    4.6480   -2.4060 hn        1 MOL      0.312065
     40 H20         6.2010    5.5150   -3.5430 hn        1 MOL      0.312065
     41 N4         -1.1490    5.0350   -0.3330 n         1 MOL     -0.428268
     42 C13        -2.2890    5.4930   -1.1990 c3        1 MOL      0.196116
     43 C14        -3.6950    5.2280   -0.5510 c         1 MOL      0.319601
     44 O6         -4.6280    5.8860   -0.9890 o         1 MOL     -0.491966
     45 C15        -2.2450    4.7620   -2.5020 c3        1 MOL     -0.356771
     46 C16        -1.9350    3.2370   -2.3520 c         1 MOL      0.741215
     47 O7         -0.7780    2.7960   -2.4850 o         1 MOL     -0.737734
     48 O8         -2.8510    2.4190   -2.0470 o         1 MOL     -0.737734
     49 H21        -1.2410    4.0730   -0.0270 hn        1 MOL      0.323850
     50 H22        -2.1870    6.5480   -1.4570 h1        1 MOL      0.088197
     51 H23        -1.5360    5.2660   -3.1560 hc        1 MOL      0.096346
     52 H24        -3.2520    4.7330   -2.8990 hc        1 MOL      0.096346
     53 N5         -3.7610    4.2480    0.3890 n         1 MOL     -0.159670
     54 C17        -4.9950    3.8970    1.1360 c3        1 MOL     -0.030273
     55 C18        -5.9420    3.0200    0.2900 c         1 MOL      0.407371
     56 O9         -7.1680    2.9570    0.6250 o         1 MOL     -0.576259
     57 H25        -2.9570    3.6550    0.5230 hn        1 MOL      0.050376
     58 H26        -5.5150    4.7100    1.6450 h1        1 MOL      0.092626
     59 H27        -4.6700    3.2310    1.9210 h1        1 MOL      0.092626
     60 N6         -5.5250    2.3320   -0.7680 n         1 MOL     -0.166360
     61 C19        -6.3880    1.4540   -1.5590 c3        1 MOL     -0.148766
     62 C20        -6.9360    0.2540   -0.6870 c         1 MOL      0.541638
     63 O10        -7.8150   -0.4230   -1.2150 o         1 MOL     -0.578478
     64 C21        -5.5990    0.9190   -2.7610 c3        1 MOL     -0.107192
     65 C22        -4.6340   -0.2520   -2.5100 c         1 MOL      0.479604
     66 N7         -4.7690   -1.3270   -3.2050 n         1 MOL     -0.672105
     67 O11        -3.6960   -0.2000   -1.7090 o         1 MOL     -0.584853
     68 H28        -4.5440    2.4000   -1.0090 hn        1 MOL      0.248548
     69 H29        -7.2120    2.0350   -1.9570 h1        1 MOL      0.136692
     70 H30        -5.1210    1.6820   -3.3740 hc        1 MOL      0.078336
     71 H31        -6.3850    0.5930   -3.4360 hc        1 MOL      0.078336
     72 H32        -5.2870   -1.3440   -4.0740 hn        1 MOL      0.338656
     73 H33        -3.9800   -1.9440   -3.1260 hn        1 MOL      0.338656
     74 N8         -6.3980   -0.0680    0.4800 n         1 MOL     -0.227338
     75 C23        -6.7210   -1.2250    1.3630 c3        1 MOL     -0.160010
     76 C24        -5.5530   -2.2350    1.6380 c         1 MOL      0.523677
     77 O12        -5.8270   -3.2200    2.3500 o         1 MOL     -0.518786
     78 H34        -5.5070    0.3260    0.7470 hn        1 MOL      0.268168
     79 H35        -7.5170   -1.8210    0.9310 h1        1 MOL      0.108479
     80 H36        -7.0840   -0.7890    2.2920 h1        1 MOL      0.108479
     81 N9         -4.3010   -2.0160    1.1080 n         1 MOL     -0.504071
     82 C25        -3.2750   -3.0480    0.9780 c3        1 MOL      0.065993
     83 C26        -1.8440   -2.4490    0.8860 c         1 MOL      0.629210
     84 O13        -1.6630   -1.5180    0.1860 o         1 MOL     -0.560107
     85 C27        -3.5660   -3.8840   -0.2790 c3        1 MOL      0.188169
     86 C28        -4.8830   -4.5340   -0.4950 ca        1 MOL     -0.163094
     87 C29        -5.0770   -5.8770   -0.0020 ca        1 MOL     -0.033934
     88 C30        -5.9540   -3.9180   -1.1270 ca        1 MOL     -0.033934
     89 C31        -6.2950   -6.5610   -0.2090 ca        1 MOL     -0.349200
     90 C32        -7.2320   -4.5050   -1.2900 ca        1 MOL     -0.349200
     91 C33        -7.3920   -5.8140   -0.7780 ca        1 MOL      0.432611
     92 O14        -8.5100   -6.6040   -0.8950 oh        1 MOL     -0.543522
     93 H37        -4.1250   -1.1280    0.6460 hn        1 MOL      0.401510
     94 H38        -3.3490   -3.7420    1.8170 h1        1 MOL      0.058256
     95 H39        -2.8300   -4.6950   -0.3230 hc        1 MOL     -0.049459
     96 H40        -3.3800   -3.2670   -1.1600 hc        1 MOL     -0.049459
     97 H41        -4.2840   -6.3460    0.5470 ha        1 MOL      0.114687
     98 H42        -5.8450   -2.8800   -1.4120 ha        1 MOL      0.114687
     99 H43        -6.4260   -7.5680    0.1540 ha        1 MOL      0.175764
    100 H44        -8.0700   -3.9580   -1.6990 ha        1 MOL      0.175764
    101 H45        -9.3290   -6.1960   -1.1990 ho        1 MOL      0.390615
    102 N10        -0.8540   -3.0280    1.6100 n         1 MOL     -0.674017
    103 C34         0.5710   -2.6550    1.5220 c3        1 MOL      0.174189
    104 C35         1.2970   -3.7350    0.6450 c         1 MOL      0.504483
    105 O15         0.9590   -4.9010    0.6630 o         1 MOL     -0.532142
    106 C36         1.1530   -2.6090    2.9350 c3        1 MOL      0.229301
    107 C37         0.4140   -1.8150    4.0280 c3        1 MOL      0.268217
    108 C38         2.5530   -2.1270    3.0720 c3        1 MOL     -0.520526
    109 C39         0.3720   -2.6080    5.3850 c3        1 MOL     -0.327596
    110 H46        -1.1020   -3.8040    2.2160 hn        1 MOL      0.316686
    111 H47         0.6470   -1.6520    1.0930 h1        1 MOL      0.060094
    112 H48         1.1120   -3.6630    3.2080 hc        1 MOL     -0.028691
    113 H49        -0.6400   -1.6610    3.7770 hc        1 MOL     -0.046400
    114 H50         0.7920   -0.7950    4.1360 hc        1 MOL     -0.046400
    115 H51         2.9650   -2.3320    4.0660 hc        1 MOL      0.115590
    116 H52         3.2000   -2.5650    2.3130 hc        1 MOL      0.115590
    117 H53         2.5860   -1.0650    2.8280 hc        1 MOL      0.115590
    118 H54        -0.2410   -2.0850    6.1190 hc        1 MOL      0.069955
    119 H55        -0.0700   -3.5830    5.1990 hc        1 MOL      0.069955
    120 H56         1.3810   -2.6910    5.7880 hc        1 MOL      0.069955
    121 N11         2.3860   -3.3470   -0.0660 n         1 MOL     -0.225308
    122 C40         3.3400   -4.1270   -0.8510 c3        1 MOL      0.018438
    123 C41         4.7490   -4.0250   -0.3750 c         1 MOL      0.463908
    124 O16         4.9330   -3.3170    0.6340 o         1 MOL     -0.420903
    125 C42         3.2150   -3.7370   -2.3310 c3        1 MOL     -0.101293
    126 O17         3.4770   -2.3810   -2.4710 oh        1 MOL     -0.467237
    127 H57         2.6010   -2.3600    0.0440 hn        1 MOL      0.081183
    128 H58         3.0160   -5.1670   -0.7420 h1        1 MOL      0.086638
    129 H59         2.2270   -3.9330   -2.7300 h1        1 MOL      0.079005
    130 H60         3.8490   -4.3170   -3.0010 h1        1 MOL      0.079005
    131 H61         2.8130   -2.0230   -3.0670 ho        1 MOL      0.395020
    132 N12         5.7900   -4.6930   -0.9060 n         1 MOL     -0.420332
    133 C43         7.1800   -4.4780   -0.5170 c3        1 MOL      0.143846
    134 C44         7.7100   -3.0090   -0.8130 c         1 MOL      0.445962
    135 O18         8.5530   -2.4800   -0.1000 o         1 MOL     -0.473036
    136 C45         7.9650   -5.5720   -1.2710 c3        1 MOL     -0.403986
    137 H62         5.4620   -5.4150   -1.5460 hn        1 MOL      0.268645
    138 H63         7.2930   -4.5970    0.5560 h1        1 MOL      0.087357
    139 H64         7.8260   -6.5340   -0.7740 hc        1 MOL      0.125481
    140 H65         7.7570   -5.5290   -2.3380 hc        1 MOL      0.125481
    141 H66         9.0080   -5.3160   -1.1200 hc        1 MOL      0.125481
    142 N13         7.2330   -2.4210   -1.9370 n         1 MOL     -0.335022
    143 C46         7.6390   -1.0850   -2.4160 c3        1 MOL      0.012897
    144 C47         7.1190   -0.0500   -1.4330 c         1 MOL      0.357892
    145 O19         7.7880    0.9820   -1.2210 o         1 MOL     -0.514456
    146 C48         6.9920   -0.6620   -3.7840 c3        1 MOL     -0.254143
    147 H67         6.6190   -2.9190   -2.5650 hn        1 MOL      0.261031
    148 H68         8.7190   -0.9870   -2.4350 h1        1 MOL      0.110748
    149 H69         7.1240   -1.3860   -4.5900 hc        1 MOL      0.081737
    150 H70         5.9340   -0.6980   -3.5130 hc        1 MOL      0.081737
    151 H71         7.3290    0.2970   -4.1740 hc        1 MOL      0.081737
    152 N14         5.9310   -0.3320   -0.8110 n         1 MOL     -0.077943
    153 C49         5.3740    0.6520    0.1250 c3        1 MOL     -0.156387
    154 C50         6.0280    0.4550    1.5300 c         1 MOL      0.430372
    155 O20         6.0900    1.4500    2.2620 o         1 MOL     -0.533695
    156 C51         3.8860    0.3050    0.3050 c3        1 MOL      0.175520
    157 C52         3.2680    0.6960   -1.0570 c3        1 MOL      0.122411
    158 C53         1.7600    0.5840   -1.0980 c         1 MOL      0.575567
    159 O21         1.0510    0.7440   -0.1010 o         1 MOL     -0.707653
    160 O22         1.1560    0.2400   -2.1370 o         1 MOL     -0.707653
    161 H72         5.5480   -1.2590   -0.9200 hn        1 MOL      0.117460
    162 H73         5.6010    1.6350   -0.2710 h1        1 MOL      0.095993
    163 H74         3.4440    0.8990    1.1100 hc        1 MOL      0.015916
    164 H75         3.6980   -0.7270    0.5970 hc        1 MOL      0.015916
    165 H76         3.6690    0.0590   -1.8370 hc        1 MOL     -0.115191
    166 H77         3.4790    1.7540   -1.2020 hc        1 MOL     -0.115191
    167 N15         6.4460   -0.7660    1.7610 n         1 MOL     -0.013043
    168 C54         7.1190   -1.0980    3.0000 c3        1 MOL     -0.368834
    169 H78         8.1550   -0.7610    2.9520 h1        1 MOL      0.132870
    170 H79         6.6160   -0.6050    3.8320 h1        1 MOL      0.132870
    171 H80         7.0960   -2.1770    3.1500 h1        1 MOL      0.132870
    172 H81         6.3350   -1.4910    1.0700 hn        1 MOL      0.079817
    173 Ca1        -1.2130    0.3880   -1.5540 Ca        1 MOL      1.786896
    174 O23        -0.7730   -1.9270   -2.7210 oh        1 MOL     -0.882207
    175 H82        -1.0440   -2.8350   -2.5660 ho        1 MOL      0.429997
    176 H83        -0.4180   -1.9300   -3.6110 ho        1 MOL      0.429997
    177 O24        -1.4760    0.4870   -4.2210 oh        1 MOL     -0.882207
    178 H84        -1.1270    0.1810   -5.0460 ho        1 MOL      0.429997
    179 H85        -2.1450    1.1210   -4.4600 ho        1 MOL      0.429997
@<TRIPOS>BOND
     1    1    2 1   
     2    1    4 1   
     3    1    5 1   
     4    1    6 1   
     5    2    3 2   
     6    2    7 1   
     7    7    8 1   
     8    7   15 1   
     9    8    9 1   
    10    8   11 1   
    11    8   16 1   
    12    9   10 2   
    13    9   19 1   
    14   11   12 1   
    15   11   17 1   
    16   11   18 1   
    17   12   13 1   
    18   12   14 1   
    19   19   20 1   
    20   19   28 1   
    21   20   21 1   
    22   20   23 1   
    23   20   29 1   
    24   21   22 2   
    25   21   41 1   
    26   23   24 1   
    27   23   30 1   
    28   23   31 1   
    29   24   25 1   
    30   24   32 1   
    31   24   33 1   
    32   25   26 1   
    33   25   34 1   
    34   25   35 1   
    35   26   27 1   
    36   26   36 1   
    37   26   37 1   
    38   27   38 1   
    39   27   39 1   
    40   27   40 1   
    41   41   42 1   
    42   41   49 1   
    43   42   43 1   
    44   42   45 1   
    45   42   50 1   
    46   43   44 2   
    47   43   53 1   
    48   45   46 1   
    49   45   51 1   
    50   45   52 1   
    51   46   47 1   
    52   46   48 1   
    53   53   54 1   
    54   53   57 1   
    55   54   55 1   
    56   54   58 1   
    57   54   59 1   
    58   55   56 2   
    59   55   60 1   
    60   60   61 1   
    61   60   68 1   
    62   61   62 1   
    63   61   64 1   
    64   61   69 1   
    65   62   63 2   
    66   62   74 1   
    67   64   65 1   
    68   64   70 1   
    69   64   71 1   
    70   65   66 1   
    71   65   67 2   
    72   66   72 1   
    73   66   73 1   
    74   74   75 1   
    75   74   78 1   
    76   75   76 1   
    77   75   79 1   
    78   75   80 1   
    79   76   77 2   
    80   76   81 1   
    81   81   82 1   
    82   81   93 1   
    83   82   83 1   
    84   82   85 1   
    85   82   94 1   
    86   83   84 2   
    87   83  102 1   
    88   85   86 1   
    89   85   95 1   
    90   85   96 1   
    91   86   87 ar  
    92   86   88 ar  
    93   87   89 ar  
    94   87   97 1   
    95   88   90 ar  
    96   88   98 1   
    97   89   91 ar  
    98   89   99 1   
    99   90   91 ar  
   100   90  100 1   
   101   91   92 1   
   102   92  101 1   
   103  102  103 1   
   104  102  110 1   
   105  103  104 1   
   106  103  106 1   
   107  103  111 1   
   108  104  105 2   
   109  104  121 1   
   110  106  107 1   
   111  106  108 1   
   112  106  112 1   
   113  107  109 1   
   114  107  113 1   
   115  107  114 1   
   116  108  115 1   
   117  108  116 1   
   118  108  117 1   
   119  109  118 1   
   120  109  119 1   
   121  109  120 1   
   122  121  122 1   
   123  121  127 1   
   124  122  123 1   
   125  122  125 1   
   126  122  128 1   
   127  123  124 2   
   128  123  132 1   
   129  125  126 1   
   130  125  129 1   
   131  125  130 1   
   132  126  131 1   
   133  132  133 1   
   134  132  137 1   
   135  133  134 1   
   136  133  136 1   
   137  133  138 1   
   138  134  135 2   
   139  134  142 1   
   140  136  139 1   
   141  136  140 1   
   142  136  141 1   
   143  142  143 1   
   144  142  147 1   
   145  143  144 1   
   146  143  146 1   
   147  143  148 1   
   148  144  145 2   
   149  144  152 1   
   150  146  149 1   
   151  146  150 1   
   152  146  151 1   
   153  152  153 1   
   154  152  161 1   
   155  153  154 1   
   156  153  156 1   
   157  153  162 1   
   158  154  155 2   
   159  154  167 1   
   160  156  157 1   
   161  156  163 1   
   162  156  164 1   
   163  157  158 1   
   164  157  165 1   
   165  157  166 1   
   166  158  159 1   
   167  158  160 1   
   168  167  168 1   
   169  167  172 1   
   170  168  169 1   
   171  168  170 1   
   172  168  171 1   
   173  174  175 1   
   174  174  176 1   
   175  177  178 1   
   176  177  179 1   
@<TRIPOS>SUBSTRUCTURE
     1 MOL         1 TEMP              0 ****  ****    0 ROOT
