@<TRIPOS>MOLECULE
MOL
  182   178     1     0     0
SMALL
resp


@<TRIPOS>ATOM
      1 C1         -2.0650   -2.7030    5.8460 c3        1 MOL     -0.358196
      2 C2         -1.6810   -2.3830    4.3630 c         1 MOL      0.756016
      3 O1         -2.5570   -2.2500    3.4870 o         1 MOL     -0.640273
      4 H1         -1.6510   -1.9360    6.5010 hc        1 MOL      0.094796
      5 H2         -3.1510   -2.7190    5.9460 hc        1 MOL      0.094796
      6 H3         -1.6590   -3.6750    6.1250 hc        1 MOL      0.094796
      7 N1         -0.3910   -2.3780    4.1090 n         1 MOL     -0.615374
      8 C3          0.3200   -2.3920    2.8540 c3        1 MOL      0.111404
      9 C4          0.3870   -3.8140    2.1990 c         1 MOL      0.448715
     10 O2          0.9150   -4.7900    2.7010 o         1 MOL     -0.569370
     11 C5          1.6800   -1.8000    3.1800 c3        1 MOL     -0.042133
     12 C6          2.5110   -1.3840    1.9870 c         1 MOL      0.784757
     13 O3          2.0950   -1.5440    0.8570 o         1 MOL     -0.765858
     14 O4          3.6300   -0.8410    2.1550 o         1 MOL     -0.765858
     15 H4          0.1390   -2.4950    4.9700 hn        1 MOL      0.311652
     16 H5         -0.1140   -1.6530    2.1850 h1        1 MOL      0.044664
     17 H6          2.2790   -2.5300    3.7360 hc        1 MOL      0.020548
     18 H7          1.5770   -0.9720    3.8770 hc        1 MOL      0.020548
     19 N2         -0.0380   -3.8660    0.9750 n         1 MOL      0.002860
     20 C7         -0.3600   -5.1350    0.2870 c3        1 MOL     -0.069558
     21 C8          0.7530   -5.6170   -0.6960 c         1 MOL      0.515413
     22 O5          0.6210   -6.6910   -1.3040 o         1 MOL     -0.561302
     23 C9         -1.6720   -5.0190   -0.3780 c3        1 MOL     -0.211606
     24 C10        -2.8790   -4.8830    0.6270 c3        1 MOL     -0.036879
     25 C11        -4.2340   -5.2200    0.0210 c3        1 MOL     -0.028781
     26 C12        -4.3880   -6.7280   -0.1480 c3        1 MOL      0.086009
     27 N3         -5.5440   -6.9260   -1.0880 n4        1 MOL     -0.455525
     28 H8         -0.5210   -3.0340    0.6630 hn        1 MOL      0.108250
     29 H9         -0.4040   -5.8850    1.0810 h1        1 MOL      0.077364
     30 H10        -1.8460   -5.9430   -0.9250 hc        1 MOL      0.075530
     31 H11        -1.6030   -4.2160   -1.1170 hc        1 MOL      0.075530
     32 H12        -2.8500   -3.9000    1.1100 hc        1 MOL      0.072576
     33 H13        -2.7410   -5.5600    1.4650 hc        1 MOL      0.072576
     34 H14        -4.2680   -4.7500   -0.9670 hc        1 MOL      0.051242
     35 H15        -5.0160   -4.8020    0.6480 hc        1 MOL      0.051242
     36 H16        -4.3740   -7.3110    0.7850 hx        1 MOL      0.072662
     37 H17        -3.5010   -7.0470   -0.7020 hx        1 MOL      0.072662
     38 H18        -5.4010   -6.6140   -2.0450 hn        1 MOL      0.349183
     39 H19        -5.5640   -7.9240   -1.2800 hn        1 MOL      0.349183
     40 H20        -6.4150   -6.5990   -0.7080 hn        1 MOL      0.349183
     41 N4          1.8480   -4.8700   -0.7530 n         1 MOL     -0.210696
     42 C13         3.1120   -5.1570   -1.4890 c3        1 MOL     -0.024498
     43 C14         4.4680   -4.7900   -0.8530 c         1 MOL      0.494166
     44 O6          5.4940   -4.9100   -1.4820 o         1 MOL     -0.481529
     45 C15         3.0940   -4.6440   -2.9340 c3        1 MOL     -0.229505
     46 C16         3.0380   -3.0570   -3.0820 c         1 MOL      0.885291
     47 O7          3.0930   -2.5930   -4.2330 o         1 MOL     -0.730587
     48 O8          2.9440   -2.3920   -2.0290 o         1 MOL     -0.730587
     49 H21         1.9110   -4.0430   -0.1790 hn        1 MOL     -0.017667
     50 H22         3.1240   -6.2490   -1.5000 h1        1 MOL      0.107560
     51 H23         2.1520   -5.0470   -3.2910 hc        1 MOL      0.058309
     52 H24         3.9580   -5.1040   -3.4300 hc        1 MOL      0.058309
     53 N5          4.3490   -4.2830    0.3800 n         1 MOL     -0.432939
     54 C17         5.4840   -3.7190    1.1210 c3        1 MOL      0.026515
     55 C18         6.3410   -2.7420    0.3220 c         1 MOL      0.356722
     56 O9          7.5510   -2.6120    0.5810 o         1 MOL     -0.534696
     57 H25         3.3890   -4.1750    0.6670 hn        1 MOL      0.297093
     58 H26         6.1180   -4.4990    1.5320 h1        1 MOL      0.079517
     59 H27         5.1560   -3.1340    1.9760 h1        1 MOL      0.079517
     60 N6          5.7380   -2.0300   -0.6370 n         1 MOL     -0.078822
     61 C19         6.3270   -0.8480   -1.3040 c3        1 MOL     -0.023194
     62 C20         6.5920    0.2630   -0.2200 c         1 MOL      0.269018
     63 O10         7.4080    1.1880   -0.4560 o         1 MOL     -0.458532
     64 C21         5.5840   -0.3530   -2.5810 c3        1 MOL     -0.298537
     65 C22         4.5540    0.7650   -2.2420 c         1 MOL      0.635084
     66 N7          4.5510    1.8430   -2.9990 n         1 MOL     -0.651198
     67 O11         3.8010    0.5890   -1.3190 o         1 MOL     -0.477032
     68 H28         4.8270   -2.3200   -0.9400 hn        1 MOL      0.149015
     69 H29         7.3180   -1.2050   -1.5580 h1        1 MOL      0.116700
     70 H30         5.0200   -1.1240   -3.0990 hc        1 MOL      0.102628
     71 H31         6.3160    0.1880   -3.1790 hc        1 MOL      0.102628
     72 H32         4.9790    1.7550   -3.9120 hn        1 MOL      0.324406
     73 H33         3.7850    2.4750   -2.8140 hn        1 MOL      0.324406
     74 N8          5.8550    0.2240    0.9700 n         1 MOL     -0.006788
     75 C23         6.0160    1.2680    1.9990 c3        1 MOL     -0.314617
     76 C24         5.0040    2.3980    1.8800 c         1 MOL      0.606479
     77 O12         5.2550    3.4880    2.4110 o         1 MOL     -0.542523
     78 H34         5.1690   -0.4820    1.1520 hn        1 MOL      0.181719
     79 H35         7.0030    1.7470    1.9840 h1        1 MOL      0.128769
     80 H36         5.9990    0.8340    3.0020 h1        1 MOL      0.128769
     81 N9          3.8650    2.2060    1.2210 n         1 MOL     -0.337030
     82 C25         2.7310    3.1780    1.1730 c3        1 MOL      0.098847
     83 C26         1.3750    2.5010    1.1320 c         1 MOL      0.559285
     84 O13         1.1170    1.5080    0.4470 o         1 MOL     -0.603748
     85 C27         2.8590    4.1070   -0.0310 c3        1 MOL      0.095400
     86 C28         4.0230    5.1000   -0.0530 ca        1 MOL     -0.178041
     87 C29         5.2360    4.7520   -0.6800 ca        1 MOL     -0.056121
     88 C30         3.8400    6.3230    0.6130 ca        1 MOL     -0.056121
     89 C31         6.2870    5.7180   -0.6560 ca        1 MOL     -0.290379
     90 C32         4.7880    7.3500    0.5080 ca        1 MOL     -0.290379
     91 C33         6.0260    7.0430   -0.1340 ca        1 MOL      0.364182
     92 O14         6.9770    7.9560   -0.4280 oh        1 MOL     -0.464812
     93 H37         3.6550    1.3400    0.7380 hn        1 MOL      0.186881
     94 H38         2.8120    3.7930    2.0740 h1        1 MOL      0.028033
     95 H39         1.9050    4.6090   -0.1800 hc        1 MOL     -0.004307
     96 H40         2.9690    3.4370   -0.8950 hc        1 MOL     -0.004307
     97 H41         5.4540    3.7110   -0.8610 ha        1 MOL      0.108069
     98 H42         2.9400    6.6010    1.1300 ha        1 MOL      0.108069
     99 H43         7.2520    5.4470   -1.0600 ha        1 MOL      0.153452
    100 H44         4.7230    8.3550    0.9020 ha        1 MOL      0.153452
    101 H45         6.7120    8.8350   -0.1550 ho        1 MOL      0.338617
    102 N10         0.4000    3.0980    1.8410 n         1 MOL     -0.567250
    103 C34        -1.0230    2.7980    1.7870 c3        1 MOL     -0.123274
    104 C35        -1.7110    3.6820    0.7340 c         1 MOL      0.700289
    105 O15        -1.7770    4.8840    0.9210 o         1 MOL     -0.584579
    106 C36        -1.6870    2.8380    3.1770 c3        1 MOL      0.244169
    107 C37        -0.9710    1.8260    4.3010 c3        1 MOL      0.125962
    108 C38        -3.1290    2.4240    3.0790 c3        1 MOL     -0.423213
    109 C39        -1.3780    2.2060    5.7370 c3        1 MOL     -0.160623
    110 H46         0.6730    3.9000    2.3870 hn        1 MOL      0.314580
    111 H47        -1.0440    1.7480    1.4870 h1        1 MOL      0.148191
    112 H48        -1.6690    3.8490    3.5900 hc        1 MOL     -0.011497
    113 H49         0.1070    2.0010    4.2830 hc        1 MOL     -0.023965
    114 H50        -1.1360    0.7770    4.0600 hc        1 MOL     -0.023965
    115 H51        -3.1510    1.4030    2.7070 hc        1 MOL      0.082827
    116 H52        -3.5260    2.4160    4.1010 hc        1 MOL      0.082827
    117 H53        -3.6390    3.1290    2.4310 hc        1 MOL      0.082827
    118 H54        -1.1610    3.2660    5.8500 hc        1 MOL      0.035931
    119 H55        -2.4260    1.9960    5.9640 hc        1 MOL      0.035931
    120 H56        -0.7580    1.6910    6.4760 hc        1 MOL      0.035931
    121 N11        -2.2070    3.1050   -0.3740 n         1 MOL     -0.335126
    122 C40        -3.0920    3.7770   -1.3450 c3        1 MOL     -0.042643
    123 C41        -4.5850    3.6410   -0.9390 c         1 MOL      0.393563
    124 O16        -4.9510    2.8310   -0.0090 o         1 MOL     -0.431178
    125 C42        -2.8580    3.1760   -2.7520 c3        1 MOL      0.020279
    126 O17        -3.1310    1.7750   -2.6250 oh        1 MOL     -0.580534
    127 H57        -2.0670    2.1100   -0.5060 hn        1 MOL      0.267648
    128 H58        -2.8170    4.8210   -1.2590 h1        1 MOL      0.061634
    129 H59        -1.8040    3.3660   -2.9390 h1        1 MOL      0.070406
    130 H60        -3.4760    3.7310   -3.4520 h1        1 MOL      0.070406
    131 H61        -2.4130    1.3230   -2.1740 ho        1 MOL      0.356023
    132 N12        -5.5130    4.2120   -1.7500 n         1 MOL     -0.311667
    133 C43        -6.9510    4.2080   -1.4660 c3        1 MOL      0.016717
    134 C44        -7.5590    2.7970   -1.7290 c         1 MOL      0.510431
    135 O18        -8.4670    2.3960   -1.0200 o         1 MOL     -0.497701
    136 C45        -7.7070    5.3040   -2.1730 c3        1 MOL     -0.226765
    137 H62        -5.1620    4.9160   -2.3920 hn        1 MOL      0.262243
    138 H63        -7.0370    4.3620   -0.3890 h1        1 MOL      0.096606
    139 H64        -8.7210    5.3610   -1.7970 hc        1 MOL      0.080117
    140 H65        -7.2490    6.3000   -2.1110 hc        1 MOL      0.080117
    141 H66        -7.7300    5.0420   -3.2220 hc        1 MOL      0.080117
    142 N13        -6.9390    1.9910   -2.6270 n         1 MOL     -0.433724
    143 C46        -7.1760    0.5370   -2.7860 c3        1 MOL      0.108835
    144 C47        -6.8350   -0.2770   -1.4970 c         1 MOL      0.243421
    145 O19        -7.5810   -1.1730   -1.0990 o         1 MOL     -0.501631
    146 C48        -6.5080   -0.0310   -4.0300 c3        1 MOL     -0.300770
    147 H67        -6.1670    2.2540   -3.2220 hn        1 MOL      0.264271
    148 H68        -8.2550    0.4290   -2.9620 h1        1 MOL      0.095497
    149 H69        -6.8060   -1.0680   -4.2030 hc        1 MOL      0.089522
    150 H70        -6.8660    0.4580   -4.9350 hc        1 MOL      0.089522
    151 H71        -5.4390   -0.1440   -3.8870 hc        1 MOL      0.089522
    152 N14        -5.8270    0.1600   -0.7050 n         1 MOL      0.046630
    153 C49        -5.3830   -0.5890    0.4780 c3        1 MOL     -0.053077
    154 C50        -6.1660   -0.2700    1.7240 c         1 MOL      0.486422
    155 O20        -6.4730   -1.1680    2.5170 o         1 MOL     -0.552585
    156 C51        -3.8610   -0.5510    0.6060 c3        1 MOL      0.025690
    157 C52        -3.1730   -0.9380   -0.6960 c3        1 MOL      0.095266
    158 C53        -1.6410   -0.5410   -0.6900 c         1 MOL      0.571635
    159 O21        -0.8200   -1.4500   -0.3810 o         1 MOL     -0.640382
    160 O22        -1.2570    0.5810   -1.1060 o         1 MOL     -0.640382
    161 H72        -5.2120    0.9100   -0.9500 hn        1 MOL      0.193834
    162 H73        -5.6770   -1.6250    0.3340 h1        1 MOL      0.027206
    163 H74        -3.5250   -1.2040    1.4170 hc        1 MOL      0.025611
    164 H75        -3.5930    0.4940    0.7930 hc        1 MOL      0.025611
    165 H76        -3.6720   -0.4270   -1.5120 hc        1 MOL     -0.071611
    166 H77        -3.2860   -2.0120   -0.8730 hc        1 MOL     -0.071611
    167 N15        -6.6200    0.9740    1.8310 n         1 MOL     -0.197930
    168 C54        -7.7400    1.2740    2.7390 c3        1 MOL     -0.188416
    169 H78        -7.3650    1.7960    3.6190 h1        1 MOL      0.090524
    170 H79        -8.4660    1.9050    2.2260 h1        1 MOL      0.090524
    171 H80        -8.2190    0.3440    3.0460 h1        1 MOL      0.090524
    172 H81        -6.2650    1.7200    1.2370 hn        1 MOL      0.176070
    173 Ca1         1.3320   -0.4270   -1.3840 Ca        1 MOL      1.791865
    174 O23         2.1170   -0.1600   -3.9590 oh        1 MOL     -0.906038
    175 H82         1.6060   -0.0400   -4.7620 ho        1 MOL      0.419880
    176 H83         2.5440   -1.0040   -4.0630 ho        1 MOL      0.419880
    177 O24         1.2270    2.3640   -2.4180 oh        1 MOL     -0.906038
    178 H84         0.9170    2.2850   -3.3230 ho        1 MOL      0.419880
    179 H85         1.2160    3.3090   -2.2510 ho        1 MOL      0.419880
    180 O25        -0.1520   -1.7460   -3.1370 oh        1 MOL     -0.906038
    181 H86        -1.0820   -1.6340   -3.2980 ho        1 MOL      0.419880
    182 H87         0.1980   -2.0480   -3.9820 ho        1 MOL      0.419880
@<TRIPOS>BOND
     1    1    2 1   
     2    1    4 1   
     3    1    5 1   
     4    1    6 1   
     5    2    3 2   
     6    2    7 1   
     7    7    8 1   
     8    7   15 1   
     9    8    9 1   
    10    8   11 1   
    11    8   16 1   
    12    9   10 2   
    13    9   19 1   
    14   11   12 1   
    15   11   17 1   
    16   11   18 1   
    17   12   13 1   
    18   12   14 1   
    19   19   20 1   
    20   19   28 1   
    21   20   21 1   
    22   20   23 1   
    23   20   29 1   
    24   21   22 2   
    25   21   41 1   
    26   23   24 1   
    27   23   30 1   
    28   23   31 1   
    29   24   25 1   
    30   24   32 1   
    31   24   33 1   
    32   25   26 1   
    33   25   34 1   
    34   25   35 1   
    35   26   27 1   
    36   26   36 1   
    37   26   37 1   
    38   27   38 1   
    39   27   39 1   
    40   27   40 1   
    41   41   42 1   
    42   41   49 1   
    43   42   43 1   
    44   42   45 1   
    45   42   50 1   
    46   43   44 2   
    47   43   53 1   
    48   45   46 1   
    49   45   51 1   
    50   45   52 1   
    51   46   47 1   
    52   46   48 1   
    53   53   54 1   
    54   53   57 1   
    55   54   55 1   
    56   54   58 1   
    57   54   59 1   
    58   55   56 2   
    59   55   60 1   
    60   60   61 1   
    61   60   68 1   
    62   61   62 1   
    63   61   64 1   
    64   61   69 1   
    65   62   63 2   
    66   62   74 1   
    67   64   65 1   
    68   64   70 1   
    69   64   71 1   
    70   65   66 1   
    71   65   67 2   
    72   66   72 1   
    73   66   73 1   
    74   74   75 1   
    75   74   78 1   
    76   75   76 1   
    77   75   79 1   
    78   75   80 1   
    79   76   77 2   
    80   76   81 1   
    81   81   82 1   
    82   81   93 1   
    83   82   83 1   
    84   82   85 1   
    85   82   94 1   
    86   83   84 2   
    87   83  102 1   
    88   85   86 1   
    89   85   95 1   
    90   85   96 1   
    91   86   87 ar  
    92   86   88 ar  
    93   87   89 ar  
    94   87   97 1   
    95   88   90 ar  
    96   88   98 1   
    97   89   91 ar  
    98   89   99 1   
    99   90   91 ar  
   100   90  100 1   
   101   91   92 1   
   102   92  101 1   
   103  102  103 1   
   104  102  110 1   
   105  103  104 1   
   106  103  106 1   
   107  103  111 1   
   108  104  105 2   
   109  104  121 1   
   110  106  107 1   
   111  106  108 1   
   112  106  112 1   
   113  107  109 1   
   114  107  113 1   
   115  107  114 1   
   116  108  115 1   
   117  108  116 1   
   118  108  117 1   
   119  109  118 1   
   120  109  119 1   
   121  109  120 1   
   122  121  122 1   
   123  121  127 1   
   124  122  123 1   
   125  122  125 1   
   126  122  128 1   
   127  123  124 2   
   128  123  132 1   
   129  125  126 1   
   130  125  129 1   
   131  125  130 1   
   132  126  131 1   
   133  132  133 1   
   134  132  137 1   
   135  133  134 1   
   136  133  136 1   
   137  133  138 1   
   138  134  135 2   
   139  134  142 1   
   140  136  139 1   
   141  136  140 1   
   142  136  141 1   
   143  142  143 1   
   144  142  147 1   
   145  143  144 1   
   146  143  146 1   
   147  143  148 1   
   148  144  145 2   
   149  144  152 1   
   150  146  149 1   
   151  146  150 1   
   152  146  151 1   
   153  152  153 1   
   154  152  161 1   
   155  153  154 1   
   156  153  156 1   
   157  153  162 1   
   158  154  155 2   
   159  154  167 1   
   160  156  157 1   
   161  156  163 1   
   162  156  164 1   
   163  157  158 1   
   164  157  165 1   
   165  157  166 1   
   166  158  159 1   
   167  158  160 1   
   168  167  168 1   
   169  167  172 1   
   170  168  169 1   
   171  168  170 1   
   172  168  171 1   
   173  174  175 1   
   174  174  176 1   
   175  177  178 1   
   176  177  179 1   
   177  180  181 1   
   178  180  182 1   
@<TRIPOS>SUBSTRUCTURE
     1 MOL         1 TEMP              0 ****  ****    0 ROOT
