@<TRIPOS>MOLECULE
MOL
  189   185     1     0     0
SMALL
resp


@<TRIPOS>ATOM
      1 C1         -0.2930    3.2080    5.7280 c3        1 MOL     -0.313843
      2 C2         -0.4860    2.7880    4.2680 c         1 MOL      0.587078
      3 O1          0.4190    3.0490    3.4920 o         1 MOL     -0.549130
      4 H1         -1.2130    3.6580    6.1010 hc        1 MOL      0.081044
      5 H2         -0.0490    2.3330    6.3300 hc        1 MOL      0.081044
      6 H3          0.5190    3.9330    5.7940 hc        1 MOL      0.081044
      7 N1         -1.6210    2.0950    4.0350 n         1 MOL     -0.397383
      8 C3         -2.1000    1.7680    2.7190 c3        1 MOL      0.184671
      9 C4         -2.7270    2.9860    2.0030 c         1 MOL      0.174848
     10 O2         -3.8650    3.3930    2.2880 o         1 MOL     -0.487913
     11 C5         -3.1360    0.7000    2.8140 c3        1 MOL     -0.379699
     12 C6         -3.9250    0.4240    1.5010 c         1 MOL      0.913161
     13 O3         -3.4050    0.6720    0.3740 o         1 MOL     -0.730667
     14 O4         -5.0400   -0.1060    1.6040 o         1 MOL     -0.730667
     15 H4         -2.2190    1.9450    4.8400 hn        1 MOL      0.288581
     16 H5         -1.2940    1.4060    2.0880 h1        1 MOL      0.033730
     17 H6         -3.8050    0.9710    3.6280 hc        1 MOL      0.086899
     18 H7         -2.5980   -0.2110    3.0680 hc        1 MOL      0.086899
     19 N2         -2.1040    3.5750    0.9240 n         1 MOL      0.073459
     20 C7         -2.4350    4.9320    0.4990 c3        1 MOL      0.087036
     21 C8         -3.3800    4.9620   -0.7420 c         1 MOL      0.445904
     22 O5         -3.5550    6.0650   -1.3290 o         1 MOL     -0.572341
     23 C9         -1.1320    5.7650    0.3800 c3        1 MOL      0.074174
     24 C10        -0.3450    6.0560    1.7540 c3        1 MOL     -0.049340
     25 C11         0.6150    7.3130    1.7730 c3        1 MOL     -0.146385
     26 C12         1.7670    7.1200    0.8330 c3        1 MOL      0.123847
     27 N3          2.6520    8.2460    0.5040 n4        1 MOL     -0.395260
     28 H8         -1.3730    2.9800    0.5690 hn        1 MOL      0.111726
     29 H9         -3.0570    5.2920    1.3100 h1        1 MOL      0.041946
     30 H10        -1.5170    6.7230    0.0280 hc        1 MOL     -0.035347
     31 H11        -0.4860    5.3060   -0.3690 hc        1 MOL     -0.035347
     32 H12         0.1680    5.1060    1.9120 hc        1 MOL      0.037456
     33 H13        -1.1700    6.0730    2.4630 hc        1 MOL      0.037456
     34 H14         0.9770    7.3850    2.8010 hc        1 MOL      0.062015
     35 H15         0.0290    8.2020    1.5520 hc        1 MOL      0.062015
     36 H16         1.3460    6.7610   -0.1080 hx        1 MOL      0.083868
     37 H17         2.4000    6.3310    1.2430 hx        1 MOL      0.083868
     38 H18         3.3610    8.5460    1.1640 hn        1 MOL      0.328619
     39 H19         3.1870    8.0630   -0.3270 hn        1 MOL      0.328619
     40 H20         2.0760    9.0710    0.3690 hn        1 MOL      0.328619
     41 N4         -3.9910    3.8620   -1.1090 n         1 MOL     -0.184563
     42 C13        -4.8370    3.7740   -2.2950 c3        1 MOL     -0.049140
     43 C14        -5.8830    2.6260   -2.2690 c         1 MOL      0.551131
     44 O6         -6.5310    2.3000   -3.2360 o         1 MOL     -0.507357
     45 C15        -3.9650    3.6120   -3.5570 c3        1 MOL     -0.198796
     46 C16        -2.9430    2.4890   -3.5340 c         1 MOL      0.855638
     47 O7         -2.7540    1.8020   -2.5420 o         1 MOL     -0.722399
     48 O8         -2.1870    2.2330   -4.5370 o         1 MOL     -0.722399
     49 H21        -3.8660    3.0280   -0.5720 hn        1 MOL     -0.055665
     50 H22        -5.3600    4.7270   -2.3500 h1        1 MOL      0.103112
     51 H23        -3.3570    4.5080   -3.5580 hc        1 MOL      0.054328
     52 H24        -4.5750    3.5830   -4.4540 hc        1 MOL      0.054328
     53 N5         -6.0310    1.9730   -1.1020 n         1 MOL     -0.358556
     54 C17        -7.2900    1.4200   -0.5390 c3        1 MOL     -0.382306
     55 C18        -7.7570    0.0750   -1.2040 c         1 MOL      0.537609
     56 O9         -8.9400   -0.3390   -1.1650 o         1 MOL     -0.555036
     57 H25        -5.3380    2.1790   -0.3980 hn        1 MOL      0.354461
     58 H26        -7.9960    2.2420   -0.6470 h1        1 MOL      0.174953
     59 H27        -7.1010    1.2190    0.5100 h1        1 MOL      0.174953
     60 N6         -6.8220   -0.5580   -1.8830 n         1 MOL     -0.212659
     61 C19        -6.9020   -1.9740   -2.1820 c3        1 MOL     -0.084513
     62 C20        -7.0630   -2.8110   -0.8680 c         1 MOL      0.503564
     63 O10        -7.6100   -3.9190   -0.9570 o         1 MOL     -0.544211
     64 C21        -5.7330   -2.4910   -3.0180 c3        1 MOL     -0.108423
     65 C22        -4.3920   -1.9570   -2.5550 c         1 MOL      0.660542
     66 O11        -4.0140   -2.1990   -1.4060 o         1 MOL     -0.699909
     67 O12        -3.6130   -1.3820   -3.4260 o         1 MOL     -0.699909
     68 H28        -5.8590   -0.2310   -1.8760 hn        1 MOL      0.193835
     69 H29        -7.8460   -2.1850   -2.6790 h1        1 MOL      0.101975
     70 H30        -5.8770   -2.2560   -4.0610 hc        1 MOL      0.053379
     71 H31        -5.6750   -3.5820   -2.9390 hc        1 MOL      0.053379
     72 N7         -6.6160   -2.2720    0.2820 n         1 MOL     -0.291752
     73 C23        -6.5650   -3.1150    1.5330 c3        1 MOL     -0.045784
     74 C24        -5.3300   -4.0340    1.5080 c         1 MOL      0.449732
     75 O13        -5.4430   -5.1810    1.9810 o         1 MOL     -0.536499
     76 H32        -6.1050   -1.4090    0.3280 hn        1 MOL      0.271741
     77 H33        -7.3900   -3.8340    1.5860 h1        1 MOL      0.080660
     78 H34        -6.6760   -2.5750    2.4750 h1        1 MOL      0.080660
     79 N8         -4.1300   -3.6320    0.9850 n         1 MOL      0.009563
     80 C25        -2.8900   -4.3620    1.2090 c3        1 MOL     -0.635030
     81 C26        -1.7170   -3.3270    1.1800 c         1 MOL      0.923167
     82 O14        -1.8220   -2.2880    0.5080 o         1 MOL     -0.693488
     83 C27        -2.6380   -5.3320    0.0350 c3        1 MOL      0.498679
     84 C28        -3.8000   -6.2540   -0.2380 c3        1 MOL     -0.474827
     85 O15        -2.5060   -4.5690   -1.1420 oh        1 MOL     -0.655440
     86 H35        -4.1350   -2.7910    0.4290 hn        1 MOL      0.042991
     87 H36        -2.8890   -4.8700    2.1720 h1        1 MOL      0.193139
     88 H37        -1.7000   -5.8730    0.1200 h1        1 MOL      0.018547
     89 H38        -3.1080   -3.8290   -1.1220 ho        1 MOL      0.443328
     90 H39        -4.0490   -6.7830    0.6950 hc        1 MOL      0.125708
     91 H40        -4.6870   -5.7270   -0.5680 hc        1 MOL      0.125708
     92 H41        -3.5670   -7.0590   -0.9270 hc        1 MOL      0.125708
     93 N9         -0.6530   -3.6560    1.8850 n         1 MOL     -0.688056
     94 C29         0.5520   -2.9000    1.9920 c3        1 MOL      0.115640
     95 C30         1.5860   -3.4020    0.9260 c         1 MOL      0.586655
     96 O16         2.0360   -4.5460    0.9970 o         1 MOL     -0.557089
     97 C31         1.0250   -2.9350    3.4910 c3        1 MOL     -0.107380
     98 C32        -0.0190   -2.2350    4.4020 c3        1 MOL      0.378538
     99 C33         2.4420   -2.1810    3.5820 c3        1 MOL     -0.287582
    100 C34         0.3620   -1.9920    5.8550 c3        1 MOL     -0.227870
    101 H42        -0.6660   -4.5100    2.4240 hn        1 MOL      0.336724
    102 H43         0.3490   -1.8680    1.6800 h1        1 MOL      0.098263
    103 H44         0.9360   -3.9810    3.7770 hc        1 MOL      0.054872
    104 H45        -0.8960   -2.8740    4.5200 hc        1 MOL     -0.091354
    105 H46        -0.4310   -1.3020    4.0170 hc        1 MOL     -0.091354
    106 H47         2.8010   -2.0200    4.6020 hc        1 MOL      0.057438
    107 H48         3.1800   -2.7710    3.0600 hc        1 MOL      0.057438
    108 H49         2.4330   -1.1700    3.1690 hc        1 MOL      0.057438
    109 H50         0.7960   -2.8690    6.3260 hc        1 MOL      0.048311
    110 H51         0.9020   -1.0470    5.9120 hc        1 MOL      0.048311
    111 H52        -0.5240   -1.7750    6.4620 hc        1 MOL      0.048311
    112 N10         2.0390   -2.4640    0.0310 n         1 MOL     -0.283402
    113 C35         3.3020   -2.7220   -0.7900 c3        1 MOL      0.031137
    114 C36         4.6680   -2.6150   -0.0080 c         1 MOL      0.347180
    115 O17         4.7060   -2.0510    1.0710 o         1 MOL     -0.306818
    116 C37         3.4070   -1.8420   -2.0400 c3        1 MOL      0.034988
    117 C38         2.1210   -2.0030   -2.7940 c3        1 MOL     -0.443570
    118 O18         3.5870   -0.4230   -1.8180 oh        1 MOL     -0.326383
    119 H53         1.5480   -1.5960   -0.1110 hn        1 MOL      0.180622
    120 H54         3.1410   -3.7790   -0.9480 h1        1 MOL      0.076668
    121 H55         4.2650   -2.2140   -2.6020 h1        1 MOL      0.019240
    122 H56         3.4180   -0.0030   -2.6710 ho        1 MOL      0.343548
    123 H57         1.8990   -3.0590   -2.9350 hc        1 MOL      0.143384
    124 H58         1.3890   -1.4550   -2.1880 hc        1 MOL      0.143384
    125 H59         2.2020   -1.5060   -3.7560 hc        1 MOL      0.143384
    126 N11         5.7600   -3.1400   -0.5880 n         1 MOL     -0.368152
    127 C39         7.1390   -2.8710   -0.1610 c3        1 MOL     -0.009746
    128 C40         7.3430   -1.4060    0.1290 c         1 MOL      0.173478
    129 O19         8.0040   -1.0330    1.0340 o         1 MOL     -0.418961
    130 C41         8.1960   -3.2550   -1.2150 c3        1 MOL      0.351929
    131 C42         8.8010   -4.7010   -1.1720 c3        1 MOL     -0.500322
    132 O20         7.7740   -3.1300   -2.4840 oh        1 MOL     -0.655507
    133 H60         5.6550   -3.6500   -1.4480 hn        1 MOL      0.258554
    134 H61         7.3150   -3.4770    0.7340 h1        1 MOL      0.121910
    135 H62         9.0070   -2.5610   -0.9970 h1        1 MOL      0.043690
    136 H63         7.7870   -4.0090   -2.8760 ho        1 MOL      0.416800
    137 H64         9.6980   -4.7230   -1.7900 hc        1 MOL      0.141078
    138 H65         9.0380   -4.8810   -0.1190 hc        1 MOL      0.141078
    139 H66         8.0570   -5.3820   -1.5570 hc        1 MOL      0.141078
    140 N12         6.7950   -0.5340   -0.7810 n         1 MOL     -0.055979
    141 C43         6.8040    0.9450   -0.6320 c3        1 MOL     -0.060707
    142 C44         5.9490    1.4720    0.5270 c         1 MOL      0.349547
    143 O21         6.3650    2.4020    1.2040 o         1 MOL     -0.514264
    144 C45         6.6430    1.6260   -2.0050 c3        1 MOL     -0.062589
    145 C46         7.9780    1.5020   -2.7620 c3        1 MOL     -0.045837
    146 C47         7.7180    2.1060   -4.1200 c3        1 MOL      0.089909
    147 C48         8.9360    2.0840   -5.0870 c3        1 MOL     -0.128399
    148 N13         9.4590    0.7500   -5.5150 n4        1 MOL     -0.315457
    149 H67         6.2740   -0.9550   -1.5290 hn        1 MOL      0.141255
    150 H68         7.8460    1.1590   -0.3860 h1        1 MOL      0.080918
    151 H69         6.4100    2.6850   -1.9030 hc        1 MOL      0.042779
    152 H70         5.7490    1.2160   -2.4720 hc        1 MOL      0.042779
    153 H71         8.3090    0.4700   -2.8840 hc        1 MOL      0.041294
    154 H72         8.7300    2.1330   -2.2870 hc        1 MOL      0.041294
    155 H73         7.3010    3.1040   -3.9940 hc        1 MOL      0.013679
    156 H74         6.9260    1.5490   -4.6190 hc        1 MOL      0.013679
    157 H75         9.7050    2.5980   -4.5170 hx        1 MOL      0.122821
    158 H76         8.7600    2.7630   -5.9210 hx        1 MOL      0.122821
    159 H77        10.2770    0.9280   -6.0970 hn        1 MOL      0.289091
    160 H78         9.6700    0.1050   -4.7690 hn        1 MOL      0.289091
    161 H79         8.7830    0.2920   -6.1120 hn        1 MOL      0.289091
    162 N14         4.7040    1.0110    0.7540 n         1 MOL     -0.087725
    163 C49         3.8350    1.3570    1.9510 c3        1 MOL     -0.247640
    164 C50         4.3680    0.8240    3.2420 c         1 MOL      0.467773
    165 O22         4.1750    1.3770    4.3210 o         1 MOL     -0.548592
    166 C51         2.4060    0.8790    1.6580 c3        1 MOL      0.275082
    167 C52         1.7720    1.7800    0.5840 c3        1 MOL     -0.244629
    168 C53         0.5430    1.0930   -0.0010 c         1 MOL      0.576882
    169 O23         0.4590   -0.1430   -0.0450 o         1 MOL     -0.645666
    170 O24        -0.3870    1.7620   -0.5140 o         1 MOL     -0.645666
    171 H80         4.2610    0.4020    0.0680 hn        1 MOL      0.082407
    172 H81         3.7990    2.4460    2.0160 h1        1 MOL      0.122704
    173 H82         1.8440    0.9080    2.5920 hc        1 MOL      0.013674
    174 H83         2.4470   -0.1210    1.2360 hc        1 MOL      0.013674
    175 H84         2.5190    1.9450   -0.1950 hc        1 MOL      0.027015
    176 H85         1.4910    2.6990    1.1060 hc        1 MOL      0.027015
    177 N15         5.1180   -0.3130    3.1560 n         1 MOL     -0.012972
    178 C54         5.7840   -0.8640    4.3270 c3        1 MOL     -0.233841
    179 H86         5.2110   -0.6150    5.2210 h1        1 MOL      0.081957
    180 H87         5.8510   -1.9480    4.2300 h1        1 MOL      0.081957
    181 H88         6.7850   -0.4430    4.4080 h1        1 MOL      0.081957
    182 H89         5.2400   -0.6520    2.2110 hn        1 MOL      0.137354
    183 Ca1        -1.8090   -0.3910   -1.2960 Ca        1 MOL      1.755129
    184 O25        -0.9510   -2.7550   -2.5160 oh        1 MOL     -0.876109
    185 H90        -1.1540   -2.7320   -3.4480 ho        1 MOL      0.406467
    186 H91        -1.3770   -3.5610   -2.2030 ho        1 MOL      0.406467
    187 O26        -0.6050    0.3650   -3.7070 oh        1 MOL     -0.876109
    188 H92        -1.4080    0.8770   -3.8340 ho        1 MOL      0.406467
    189 H93        -0.0490    0.5960   -4.4470 ho        1 MOL      0.406467
@<TRIPOS>BOND
     1    1    2 1   
     2    1    4 1   
     3    1    5 1   
     4    1    6 1   
     5    2    3 2   
     6    2    7 1   
     7    7    8 1   
     8    7   15 1   
     9    8    9 1   
    10    8   11 1   
    11    8   16 1   
    12    9   10 2   
    13    9   19 1   
    14   11   12 1   
    15   11   17 1   
    16   11   18 1   
    17   12   13 1   
    18   12   14 1   
    19   19   20 1   
    20   19   28 1   
    21   20   21 1   
    22   20   23 1   
    23   20   29 1   
    24   21   22 2   
    25   21   41 1   
    26   23   24 1   
    27   23   30 1   
    28   23   31 1   
    29   24   25 1   
    30   24   32 1   
    31   24   33 1   
    32   25   26 1   
    33   25   34 1   
    34   25   35 1   
    35   26   27 1   
    36   26   36 1   
    37   26   37 1   
    38   27   38 1   
    39   27   39 1   
    40   27   40 1   
    41   41   42 1   
    42   41   49 1   
    43   42   43 1   
    44   42   45 1   
    45   42   50 1   
    46   43   44 2   
    47   43   53 1   
    48   45   46 1   
    49   45   51 1   
    50   45   52 1   
    51   46   47 1   
    52   46   48 1   
    53   53   54 1   
    54   53   57 1   
    55   54   55 1   
    56   54   58 1   
    57   54   59 1   
    58   55   56 2   
    59   55   60 1   
    60   60   61 1   
    61   60   68 1   
    62   61   62 1   
    63   61   64 1   
    64   61   69 1   
    65   62   63 2   
    66   62   72 1   
    67   64   65 1   
    68   64   70 1   
    69   64   71 1   
    70   65   66 1   
    71   65   67 1   
    72   72   73 1   
    73   72   76 1   
    74   73   74 1   
    75   73   77 1   
    76   73   78 1   
    77   74   75 2   
    78   74   79 1   
    79   79   80 1   
    80   79   86 1   
    81   80   81 1   
    82   80   83 1   
    83   80   87 1   
    84   81   82 2   
    85   81   93 1   
    86   83   84 1   
    87   83   85 1   
    88   83   88 1   
    89   84   90 1   
    90   84   91 1   
    91   84   92 1   
    92   85   89 1   
    93   93   94 1   
    94   93  101 1   
    95   94   95 1   
    96   94   97 1   
    97   94  102 1   
    98   95   96 2   
    99   95  112 1   
   100   97   98 1   
   101   97   99 1   
   102   97  103 1   
   103   98  100 1   
   104   98  104 1   
   105   98  105 1   
   106   99  106 1   
   107   99  107 1   
   108   99  108 1   
   109  100  109 1   
   110  100  110 1   
   111  100  111 1   
   112  112  113 1   
   113  112  119 1   
   114  113  114 1   
   115  113  116 1   
   116  113  120 1   
   117  114  115 2   
   118  114  126 1   
   119  116  117 1   
   120  116  118 1   
   121  116  121 1   
   122  117  123 1   
   123  117  124 1   
   124  117  125 1   
   125  118  122 1   
   126  126  127 1   
   127  126  133 1   
   128  127  128 1   
   129  127  130 1   
   130  127  134 1   
   131  128  129 2   
   132  128  140 1   
   133  130  131 1   
   134  130  132 1   
   135  130  135 1   
   136  131  137 1   
   137  131  138 1   
   138  131  139 1   
   139  132  136 1   
   140  140  141 1   
   141  140  149 1   
   142  141  142 1   
   143  141  144 1   
   144  141  150 1   
   145  142  143 2   
   146  142  162 1   
   147  144  145 1   
   148  144  151 1   
   149  144  152 1   
   150  145  146 1   
   151  145  153 1   
   152  145  154 1   
   153  146  147 1   
   154  146  155 1   
   155  146  156 1   
   156  147  148 1   
   157  147  157 1   
   158  147  158 1   
   159  148  159 1   
   160  148  160 1   
   161  148  161 1   
   162  162  163 1   
   163  162  171 1   
   164  163  164 1   
   165  163  166 1   
   166  163  172 1   
   167  164  165 2   
   168  164  177 1   
   169  166  167 1   
   170  166  173 1   
   171  166  174 1   
   172  167  168 1   
   173  167  175 1   
   174  167  176 1   
   175  168  169 1   
   176  168  170 1   
   177  177  178 1   
   178  177  182 1   
   179  178  179 1   
   180  178  180 1   
   181  178  181 1   
   182  184  185 1   
   183  184  186 1   
   184  187  188 1   
   185  187  189 1   
@<TRIPOS>SUBSTRUCTURE
     1 MOL         1 TEMP              0 ****  ****    0 ROOT
