@<TRIPOS>MOLECULE
MOL
  183   181     1     0     0
SMALL
resp


@<TRIPOS>ATOM
      1 C1         -0.9560    2.1910    6.2270 c3        1 MOL     -0.239085
      2 C2         -1.2730    1.9920    4.7500 c         1 MOL      0.746933
      3 O1         -0.4060    2.3180    3.9070 o         1 MOL     -0.605812
      4 H1         -0.8280    3.2540    6.4310 hc        1 MOL      0.048592
      5 H2         -1.7760    1.8020    6.8300 hc        1 MOL      0.048592
      6 H3         -0.0380    1.6610    6.4770 hc        1 MOL      0.048592
      7 N1         -2.3990    1.3810    4.4380 n         1 MOL     -0.647540
      8 C3         -2.9550    1.3330    3.1090 c3        1 MOL      0.140407
      9 C4         -3.3370    2.7210    2.5980 c         1 MOL      0.576222
     10 O2         -4.1850    3.3540    3.2090 o         1 MOL     -0.567291
     11 C5         -4.1850    0.4470    3.0720 c3        1 MOL     -0.092585
     12 C6         -4.8620    0.3250    1.6650 c         1 MOL      0.615607
     13 O3         -6.0890    0.2170    1.6110 o         1 MOL     -0.632889
     14 O4         -4.2280    0.4160    0.5870 o         1 MOL     -0.632889
     15 H4         -2.9320    1.0780    5.2380 hn        1 MOL      0.330531
     16 H5         -2.2250    0.8300    2.4680 h1        1 MOL      0.046544
     17 H6         -4.9490    0.8500    3.7260 hc        1 MOL      0.012578
     18 H7         -4.0010   -0.5670    3.4380 hc        1 MOL      0.012578
     19 N2         -2.7310    3.2220    1.5130 n         1 MOL     -0.341660
     20 C7         -2.9150    4.5630    0.9570 c3        1 MOL     -0.126641
     21 C8         -4.2660    4.5600    0.1580 c         1 MOL      0.626932
     22 O5         -5.0350    5.4710    0.2660 o         1 MOL     -0.565157
     23 C9         -1.7660    5.0830    0.0460 c3        1 MOL      0.261653
     24 C10        -0.4980    5.3290    0.8590 c3        1 MOL      0.279010
     25 C11        -2.1120    6.2950   -0.8050 c3        1 MOL     -0.323051
     26 C12         0.8290    5.6250    0.2020 c3        1 MOL     -0.259456
     27 H8         -1.9660    2.6740    1.1410 hn        1 MOL      0.243933
     28 H9         -3.0120    5.2220    1.8220 h1        1 MOL      0.050400
     29 H10        -1.6750    4.2620   -0.6610 hc        1 MOL     -0.026455
     30 H11        -0.3510    4.4750    1.5170 hc        1 MOL     -0.068281
     31 H12        -0.7950    6.1410    1.5160 hc        1 MOL     -0.068281
     32 H13        -1.1600    6.5980   -1.2450 hc        1 MOL      0.058413
     33 H14        -2.8160    6.0950   -1.6230 hc        1 MOL      0.058413
     34 H15        -2.4760    7.1010   -0.1710 hc        1 MOL      0.058413
     35 H16         0.8780    5.0980   -0.7550 hc        1 MOL      0.047529
     36 H17         0.7480    6.6960    0.0330 hc        1 MOL      0.047529
     37 H18         1.5960    5.3540    0.9270 hc        1 MOL      0.047529
     38 N3         -4.4900    3.5320   -0.8010 n         1 MOL     -0.471271
     39 C13        -5.3330    3.7950   -2.0220 c3        1 MOL     -0.056794
     40 C14        -6.6330    2.9610   -2.0000 c         1 MOL      0.523896
     41 O6         -7.3190    2.9910   -2.9730 o         1 MOL     -0.555755
     42 C15        -4.4780    3.5790   -3.3140 c3        1 MOL     -0.031260
     43 C16        -3.4860    2.4050   -3.3330 c         1 MOL      0.777018
     44 O7         -3.5180    1.5080   -2.4950 o         1 MOL     -0.726637
     45 O8         -2.6500    2.2860   -4.2860 o         1 MOL     -0.726637
     46 H19        -3.7650    2.8340   -0.8980 hn        1 MOL      0.207233
     47 H20        -5.6430    4.8410   -2.0250 h1        1 MOL      0.106533
     48 H21        -3.9180    4.4830   -3.5250 hc        1 MOL      0.011192
     49 H22        -4.9890    3.5260   -4.2740 hc        1 MOL      0.011192
     50 N4         -6.9730    2.2630   -0.8920 n         1 MOL     -0.340648
     51 C17        -8.2810    1.5920   -0.7210 c3        1 MOL     -0.176737
     52 C18        -8.3390    0.0970   -1.1980 c         1 MOL      0.522688
     53 O9         -9.4410   -0.4570   -1.4120 o         1 MOL     -0.613535
     54 H23        -6.2500    2.2240   -0.1930 hn        1 MOL      0.285939
     55 H24        -8.9580    2.1030   -1.3930 h1        1 MOL      0.108617
     56 H25        -8.7160    1.6310    0.2750 h1        1 MOL      0.108617
     57 N5         -7.1730   -0.5650   -1.3680 n         1 MOL     -0.166997
     58 C19        -7.1350   -2.0310   -1.8290 c3        1 MOL     -0.009434
     59 C20        -6.9800   -3.0060   -0.6650 c         1 MOL      0.398418
     60 O10        -7.0910   -4.2090   -0.8500 o         1 MOL     -0.560935
     61 C21        -6.0070   -2.1960   -2.8980 c3        1 MOL     -0.186049
     62 C22        -4.6170   -1.9050   -2.3800 c         1 MOL      0.731872
     63 O11        -3.7320   -1.4570   -3.1680 o         1 MOL     -0.699281
     64 O12        -4.2920   -2.0470   -1.1860 o         1 MOL     -0.699281
     65 H26        -6.3810   -0.1030   -0.9390 hn        1 MOL      0.114424
     66 H27        -8.1010   -2.2320   -2.3080 h1        1 MOL      0.104519
     67 H28        -6.1950   -1.4420   -3.6500 hc        1 MOL      0.050544
     68 H29        -6.0090   -3.1650   -3.3920 hc        1 MOL      0.050544
     69 N6         -6.6750   -2.5060    0.5260 n         1 MOL     -0.130638
     70 C23        -6.5710   -3.2540    1.8010 c3        1 MOL     -0.082608
     71 C24        -5.3270   -4.1490    1.9820 c         1 MOL      0.512506
     72 O13        -5.3430   -5.0280    2.8720 o         1 MOL     -0.608413
     73 H30        -6.5920   -1.4990    0.5460 hn        1 MOL      0.136806
     74 H31        -7.4610   -3.8680    1.8920 h1        1 MOL      0.054622
     75 H32        -6.5880   -2.4930    2.5750 h1        1 MOL      0.054622
     76 N7         -4.3340   -3.9080    1.1760 n         1 MOL     -0.128077
     77 C25        -2.9920   -4.4490    1.2370 c3        1 MOL      0.021307
     78 C26        -1.9190   -3.3780    1.3620 c         1 MOL      0.558742
     79 O14        -2.1300   -2.1690    1.0770 o         1 MOL     -0.689494
     80 C27        -2.6920   -5.5030    0.0930 c3        1 MOL     -0.225819
     81 C28        -2.7460   -5.0170   -1.3030 c3        1 MOL     -0.111972
     82 C29        -1.5810   -4.0840   -1.6360 c         1 MOL      0.615542
     83 N8         -0.4490   -4.5050   -2.1270 n         1 MOL     -0.707375
     84 O15        -1.5730   -2.8680   -1.4850 o         1 MOL     -0.575274
     85 H33        -4.4860   -3.1340    0.5540 hn        1 MOL      0.168503
     86 H34        -2.9200   -5.0520    2.1370 h1        1 MOL      0.023538
     87 H35        -3.4850   -6.2150    0.2960 hc        1 MOL      0.075575
     88 H36        -1.7050   -5.8700    0.3530 hc        1 MOL      0.075575
     89 H37        -3.5960   -4.4340   -1.6500 hc        1 MOL      0.060386
     90 H38        -2.5240   -5.8640   -1.9640 hc        1 MOL      0.060386
     91 H39        -0.1870   -5.4140   -2.4600 hn        1 MOL      0.338499
     92 H40         0.1780   -3.7090   -2.2130 hn        1 MOL      0.338499
     93 N9         -0.6920   -3.7830    1.7470 n         1 MOL     -0.320184
     94 C30         0.4350   -2.8940    2.0340 c3        1 MOL     -0.116850
     95 C31         1.6830   -3.2720    1.1720 c         1 MOL      0.413702
     96 O16         2.1660   -4.3460    1.3020 o         1 MOL     -0.531302
     97 C32         0.7210   -2.8480    3.5730 c3        1 MOL      0.317903
     98 C33         1.7750   -1.7750    3.9520 c3        1 MOL     -0.440397
     99 C34        -0.5330   -2.4580    4.4170 c3        1 MOL     -0.440397
    100 H41        -0.5340   -4.7650    1.9160 hn        1 MOL      0.261813
    101 H42         0.1250   -1.8640    1.8340 h1        1 MOL      0.185660
    102 H43         1.0220   -3.8500    3.8990 hc        1 MOL     -0.041536
    103 H44         1.8490   -1.8260    5.0370 hc        1 MOL      0.103633
    104 H45         2.7290   -2.1460    3.5860 hc        1 MOL      0.103633
    105 H46         1.4920   -0.7660    3.6420 hc        1 MOL      0.103633
    106 H47        -1.2690   -3.2150    4.1340 hc        1 MOL      0.103633
    107 H48        -0.3600   -2.3340    5.4810 hc        1 MOL      0.103633
    108 H49        -0.8560   -1.4950    4.0100 hc        1 MOL      0.103633
    109 N10         2.0510   -2.4080    0.1780 n         1 MOL     -0.263796
    110 C35         3.2680   -2.4550   -0.6550 c3        1 MOL      0.116248
    111 C36         4.4860   -1.8790    0.1310 c         1 MOL      0.390694
    112 O17         4.3450   -1.1030    1.1030 o         1 MOL     -0.405836
    113 C37         3.1240   -1.7550   -1.9940 c3        1 MOL     -0.414732
    114 C38         2.0040   -2.3660   -2.7750 c         1 MOL      0.763012
    115 N11         0.8740   -1.7800   -2.7310 n         1 MOL     -0.771360
    116 O18         2.0780   -3.3890   -3.3920 o         1 MOL     -0.637643
    117 H50         1.4970   -1.5720    0.0730 hn        1 MOL      0.298888
    118 H51         3.5380   -3.4770   -0.9280 h1        1 MOL      0.033965
    119 H52         4.0860   -1.8260   -2.5050 hc        1 MOL      0.128404
    120 H53         2.9370   -0.6890   -1.8630 hc        1 MOL      0.128404
    121 H54         0.6240   -1.0000   -2.1400 hn        1 MOL      0.355057
    122 H55         0.1610   -2.0940   -3.3750 hn        1 MOL      0.355057
    123 N12         5.6780   -2.0720   -0.4330 n         1 MOL     -0.406884
    124 C39         6.9170   -1.4260   -0.0910 c3        1 MOL      0.080430
    125 C40         6.8560    0.0970   -0.2020 c         1 MOL      0.692843
    126 O19         7.0760    0.7610    0.7410 o         1 MOL     -0.638234
    127 C41         8.0750   -1.9790   -0.9730 c3        1 MOL     -0.190366
    128 C42         9.4050   -1.4660   -0.4350 ca        1 MOL      0.048826
    129 C43        10.0110   -2.1920    0.5590 ca        1 MOL     -0.097928
    130 C44         9.9290   -0.3250   -0.9580 ca        1 MOL     -0.097928
    131 C45        11.1850   -1.7140    1.1660 ca        1 MOL     -0.317584
    132 C46        11.1790    0.0950   -0.4320 ca        1 MOL     -0.317584
    133 C47        11.7520   -0.4800    0.6600 ca        1 MOL      0.386304
    134 O20        12.9210   -0.0530    1.1850 oh        1 MOL     -0.540976
    135 H56         5.7280   -2.7570   -1.1660 hn        1 MOL      0.286045
    136 H57         7.1210   -1.6860    0.9470 h1        1 MOL      0.043522
    137 H58         7.9170   -1.5060   -1.9430 hc        1 MOL      0.072775
    138 H59         8.0490   -3.0650   -0.9450 hc        1 MOL      0.072775
    139 H60         9.5180   -2.9830    1.1070 ha        1 MOL      0.120952
    140 H61         9.5480    0.2530   -1.7910 ha        1 MOL      0.120952
    141 H62        11.6600   -2.0970    2.0590 ha        1 MOL      0.143030
    142 H63        11.6190    1.0310   -0.7490 ha        1 MOL      0.143030
    143 H64        13.2950    0.6550    0.6630 ho        1 MOL      0.375142
    144 N13         6.4120    0.6650   -1.3170 n         1 MOL     -0.226673
    145 C48         6.1720    2.1220   -1.5440 c3        1 MOL     -0.141605
    146 C49         5.2240    2.8330   -0.5090 c         1 MOL      0.405091
    147 O21         5.0520    4.0450   -0.6040 o         1 MOL     -0.550588
    148 C50         5.6070    2.3040   -2.8950 c3        1 MOL     -0.015704
    149 C51         6.6020    2.0610   -4.0120 c3        1 MOL     -0.163878
    150 C52         7.1700    0.7180   -4.3300 c         1 MOL      0.786601
    151 O22         8.3830    0.5810   -4.6170 o         1 MOL     -0.739707
    152 O23         6.4420   -0.2800   -4.3080 o         1 MOL     -0.739707
    153 H65         6.0190    0.0850   -2.0480 hn        1 MOL      0.144805
    154 H66         7.1450    2.5900   -1.4240 h1        1 MOL      0.118331
    155 H67         5.1150    3.2730   -2.9550 hc        1 MOL      0.049839
    156 H68         4.8380    1.5530   -3.0210 hc        1 MOL      0.049839
    157 H69         7.4540    2.7160   -3.8390 hc        1 MOL      0.002746
    158 H70         6.1550    2.4020   -4.9470 hc        1 MOL      0.002746
    159 N14         4.5950    2.0960    0.3760 n         1 MOL     -0.098826
    160 C53         3.6060    2.5290    1.3870 c3        1 MOL     -0.065814
    161 C54         4.1160    2.2490    2.7810 c         1 MOL      0.378995
    162 O24         3.8450    3.0240    3.6760 o         1 MOL     -0.555259
    163 C55         2.2820    1.6900    1.2860 c3        1 MOL      0.535936
    164 C56         1.5870    1.6220   -0.0630 c3        1 MOL      0.124220
    165 C57         0.2330    0.9410   -0.0850 c         1 MOL      0.665619
    166 O25        -0.8660    1.5440    0.0450 o         1 MOL     -0.769470
    167 O26         0.2520   -0.2860   -0.4590 o         1 MOL     -0.769470
    168 H71         4.8080    1.1030    0.3910 hn        1 MOL      0.088991
    169 H72         3.3510    3.5760    1.2660 h1        1 MOL      0.093083
    170 H73         1.5180    2.1650    1.9000 hc        1 MOL     -0.143113
    171 H74         2.3320    0.6370    1.5520 hc        1 MOL     -0.143113
    172 H75         2.2850    1.1310   -0.7380 hc        1 MOL     -0.103832
    173 H76         1.5060    2.6570   -0.3830 hc        1 MOL     -0.103832
    174 N15         4.8550    1.1830    2.9680 n         1 MOL     -0.024014
    175 C58         5.4530    0.8830    4.2310 c3        1 MOL     -0.323433
    176 H77         5.5210    1.7940    4.8260 h1        1 MOL      0.108328
    177 H78         4.8420    0.1510    4.7590 h1        1 MOL      0.108328
    178 H79         6.4530    0.4770    4.0740 h1        1 MOL      0.108328
    179 H80         4.9890    0.5690    2.1770 hn        1 MOL      0.095016
    180 Ca1        -2.4150   -0.3640   -0.9540 Ca        1 MOL      1.743042
    181 O27        -1.0090    0.3640   -3.1930 oh        1 MOL     -0.791996
    182 H81        -1.7460    0.8770   -3.5120 ho        1 MOL      0.378569
    183 H82        -0.2520    0.9310   -3.3120 ho        1 MOL      0.378569
@<TRIPOS>BOND
     1    1    2 1   
     2    1    4 1   
     3    1    5 1   
     4    1    6 1   
     5    2    3 2   
     6    2    7 1   
     7    7    8 1   
     8    7   15 1   
     9    8    9 1   
    10    8   11 1   
    11    8   16 1   
    12    9   10 2   
    13    9   19 1   
    14   11   12 1   
    15   11   17 1   
    16   11   18 1   
    17   12   13 1   
    18   12   14 1   
    19   19   20 1   
    20   19   27 1   
    21   20   21 1   
    22   20   23 1   
    23   20   28 1   
    24   21   22 2   
    25   21   38 1   
    26   23   24 1   
    27   23   25 1   
    28   23   29 1   
    29   24   26 1   
    30   24   30 1   
    31   24   31 1   
    32   25   32 1   
    33   25   33 1   
    34   25   34 1   
    35   26   35 1   
    36   26   36 1   
    37   26   37 1   
    38   38   39 1   
    39   38   46 1   
    40   39   40 1   
    41   39   42 1   
    42   39   47 1   
    43   40   41 2   
    44   40   50 1   
    45   42   43 1   
    46   42   48 1   
    47   42   49 1   
    48   43   44 1   
    49   43   45 1   
    50   50   51 1   
    51   50   54 1   
    52   51   52 1   
    53   51   55 1   
    54   51   56 1   
    55   52   53 2   
    56   52   57 1   
    57   57   58 1   
    58   57   65 1   
    59   58   59 1   
    60   58   61 1   
    61   58   66 1   
    62   59   60 2   
    63   59   69 1   
    64   61   62 1   
    65   61   67 1   
    66   61   68 1   
    67   62   63 1   
    68   62   64 1   
    69   69   70 1   
    70   69   73 1   
    71   70   71 1   
    72   70   74 1   
    73   70   75 1   
    74   71   72 2   
    75   71   76 1   
    76   76   77 1   
    77   76   85 1   
    78   77   78 1   
    79   77   80 1   
    80   77   86 1   
    81   78   79 2   
    82   78   93 1   
    83   80   81 1   
    84   80   87 1   
    85   80   88 1   
    86   81   82 1   
    87   81   89 1   
    88   81   90 1   
    89   82   83 1   
    90   82   84 2   
    91   83   91 1   
    92   83   92 1   
    93   93   94 1   
    94   93  100 1   
    95   94   95 1   
    96   94   97 1   
    97   94  101 1   
    98   95   96 2   
    99   95  109 1   
   100   97   98 1   
   101   97   99 1   
   102   97  102 1   
   103   98  103 1   
   104   98  104 1   
   105   98  105 1   
   106   99  106 1   
   107   99  107 1   
   108   99  108 1   
   109  109  110 1   
   110  109  117 1   
   111  110  111 1   
   112  110  113 1   
   113  110  118 1   
   114  111  112 2   
   115  111  123 1   
   116  113  114 1   
   117  113  119 1   
   118  113  120 1   
   119  114  115 1   
   120  114  116 2   
   121  115  121 1   
   122  115  122 1   
   123  123  124 1   
   124  123  135 1   
   125  124  125 1   
   126  124  127 1   
   127  124  136 1   
   128  125  126 2   
   129  125  144 1   
   130  127  128 1   
   131  127  137 1   
   132  127  138 1   
   133  128  129 ar  
   134  128  130 ar  
   135  129  131 ar  
   136  129  139 1   
   137  130  132 ar  
   138  130  140 1   
   139  131  133 ar  
   140  131  141 1   
   141  132  133 ar  
   142  132  142 1   
   143  133  134 1   
   144  134  143 1   
   145  144  145 1   
   146  144  153 1   
   147  145  146 1   
   148  145  148 1   
   149  145  154 1   
   150  146  147 2   
   151  146  159 1   
   152  148  149 1   
   153  148  155 1   
   154  148  156 1   
   155  149  150 1   
   156  149  157 1   
   157  149  158 1   
   158  150  151 1   
   159  150  152 1   
   160  159  160 1   
   161  159  168 1   
   162  160  161 1   
   163  160  163 1   
   164  160  169 1   
   165  161  162 2   
   166  161  174 1   
   167  163  164 1   
   168  163  170 1   
   169  163  171 1   
   170  164  165 1   
   171  164  172 1   
   172  164  173 1   
   173  165  166 1   
   174  165  167 1   
   175  174  175 1   
   176  174  179 1   
   177  175  176 1   
   178  175  177 1   
   179  175  178 1   
   180  181  182 1   
   181  181  183 1   
@<TRIPOS>SUBSTRUCTURE
     1 MOL         1 TEMP              0 ****  ****    0 ROOT
