@<TRIPOS>MOLECULE
MOL
  176   174     1     0     0
SMALL
resp


@<TRIPOS>ATOM
      1 C1         -0.0280   -3.7490    6.3720 c3        1 MOL     -0.317053
      2 C2         -0.1420   -3.3990    4.8830 c         1 MOL      0.744339
      3 O1         -1.2020   -3.4630    4.2740 o         1 MOL     -0.582097
      4 H1         -0.1990   -2.8530    6.9690 hc        1 MOL      0.083892
      5 H2         -0.7740   -4.5030    6.6270 hc        1 MOL      0.083892
      6 H3          0.9680   -4.1380    6.5790 hc        1 MOL      0.083892
      7 N1          1.0060   -3.0970    4.2250 n         1 MOL     -0.655980
      8 C3          1.1100   -2.9680    2.7760 c3        1 MOL      0.049823
      9 C4          0.8390   -4.2830    2.0520 c         1 MOL      0.596188
     10 O2          1.4620   -5.3510    2.3200 o         1 MOL     -0.541608
     11 C5          2.5380   -2.4820    2.4660 c3        1 MOL      0.065620
     12 C6          2.5430   -1.7700    1.0810 c         1 MOL      0.694197
     13 O3          2.0830   -2.3200    0.0750 o         1 MOL     -0.739551
     14 O4          3.0160   -0.6080    0.9120 o         1 MOL     -0.739551
     15 H4          1.8690   -3.1180    4.7470 hn        1 MOL      0.330822
     16 H5          0.4350   -2.2110    2.3820 h1        1 MOL      0.065088
     17 H6          3.1930   -3.3500    2.5340 hc        1 MOL     -0.004605
     18 H7          2.8890   -1.7510    3.1900 hc        1 MOL     -0.004605
     19 N2          0.0440   -4.1660    1.0070 n         1 MOL     -0.433118
     20 C7         -0.2950   -5.3450    0.1400 c3        1 MOL      0.037799
     21 C8          0.8670   -5.8240   -0.6800 c         1 MOL      0.406574
     22 O5          1.0520   -7.0100   -0.9450 o         1 MOL     -0.573636
     23 C9         -1.5160   -5.0670   -0.8330 c3        1 MOL     -0.320370
     24 C10        -2.8890   -5.3750   -0.1660 c3        1 MOL      0.192603
     25 C11        -4.0550   -5.1120   -1.0930 c3        1 MOL     -0.096090
     26 C12        -4.3550   -6.1230   -2.1450 c3        1 MOL      0.125190
     27 N3         -5.5940   -5.8810   -2.8980 n4        1 MOL     -0.387194
     28 H8         -0.1760   -3.2510    0.6400 hn        1 MOL      0.270500
     29 H9         -0.5750   -6.2350    0.7000 h1        1 MOL      0.106882
     30 H10        -1.4470   -5.6000   -1.7840 hc        1 MOL      0.108292
     31 H11        -1.4980   -3.9900   -0.9960 hc        1 MOL      0.108292
     32 H12        -3.0800   -4.7940    0.7460 hc        1 MOL      0.007983
     33 H13        -2.9560   -6.4160    0.1230 hc        1 MOL      0.007983
     34 H14        -3.9740   -4.1830   -1.6460 hc        1 MOL      0.057838
     35 H15        -4.9490   -5.1010   -0.4670 hc        1 MOL      0.057838
     36 H16        -4.4930   -7.1330   -1.7610 hx        1 MOL      0.041757
     37 H17        -3.4700   -6.1180   -2.7840 hx        1 MOL      0.041757
     38 H18        -5.9120   -6.6850   -3.4100 hn        1 MOL      0.335194
     39 H19        -6.2690   -5.4980   -2.2480 hn        1 MOL      0.335194
     40 H20        -5.4010   -5.2000   -3.6270 hn        1 MOL      0.335194
     41 N4          1.7690   -4.9840   -1.0710 n         1 MOL     -0.129044
     42 C13         2.9400   -5.1700   -1.9350 c3        1 MOL      0.042767
     43 C14         4.3010   -4.8940   -1.2250 c         1 MOL      0.411514
     44 O6          5.3780   -5.2870   -1.7530 o         1 MOL     -0.544925
     45 C15         2.7840   -4.3200   -3.2520 c3        1 MOL     -0.281507
     46 C16         2.4720   -2.8450   -2.9990 c         1 MOL      0.860934
     47 O7          3.4060   -2.1840   -2.5080 o         1 MOL     -0.812701
     48 O8          1.3750   -2.2960   -3.1850 o         1 MOL     -0.812701
     49 H21         1.5900   -4.0150   -0.8620 hn        1 MOL      0.210592
     50 H22         2.9510   -6.2190   -2.2210 h1        1 MOL      0.093947
     51 H23         1.9690   -4.7410   -3.8500 hc        1 MOL      0.074881
     52 H24         3.6810   -4.4170   -3.8640 hc        1 MOL      0.074881
     53 N5          4.3300   -4.0860   -0.1720 n         1 MOL     -0.138460
     54 C17         5.4640   -3.6260    0.5140 c3        1 MOL      0.034081
     55 C18         6.2240   -2.4460    0.0460 c         1 MOL      0.431467
     56 O9          7.3030   -2.2460    0.5340 o         1 MOL     -0.556748
     57 H25         3.4960   -3.6020    0.1380 hn        1 MOL     -0.017789
     58 H26         6.1690   -4.4130    0.7720 h1        1 MOL      0.053424
     59 H27         5.1540   -3.3090    1.5090 h1        1 MOL      0.053424
     60 N6          5.6770   -1.5510   -0.8100 n         1 MOL     -0.199695
     61 C19         6.5120   -0.4010   -1.2110 c3        1 MOL     -0.011756
     62 C20         6.6600    0.6920   -0.1000 c         1 MOL      0.274794
     63 O10         7.4090    1.6240   -0.3090 o         1 MOL     -0.498569
     64 C21         5.9780    0.1940   -2.5470 c3        1 MOL     -0.307099
     65 C22         4.7540    1.1780   -2.4290 c         1 MOL      0.586630
     66 N7          4.7630    2.2660   -3.1820 n         1 MOL     -0.506116
     67 O11         3.8320    0.9090   -1.6620 o         1 MOL     -0.624674
     68 H28         4.8600   -1.8240   -1.3420 hn        1 MOL      0.300916
     69 H29         7.5270   -0.7430   -1.4070 h1        1 MOL      0.121031
     70 H30         5.6870   -0.6830   -3.1260 hc        1 MOL      0.119124
     71 H31         6.7760    0.6770   -3.1080 hc        1 MOL      0.119124
     72 H32         5.3740    2.3030   -3.9880 hn        1 MOL      0.282208
     73 H33         3.8180    2.5720   -3.3590 hn        1 MOL      0.282208
     74 N8          5.8800    0.7310    0.9340 n         1 MOL      0.131689
     75 C23         5.9780    1.6590    2.0520 c3        1 MOL     -0.480392
     76 C24         4.8580    2.6520    2.0380 c         1 MOL      0.750256
     77 O12         4.9650    3.5640    2.8680 o         1 MOL     -0.562537
     78 H34         5.0720    0.1260    0.9750 hn        1 MOL      0.066301
     79 H35         6.9000    2.2410    1.9760 h1        1 MOL      0.174413
     80 H36         6.0240    1.0140    2.9420 h1        1 MOL      0.174413
     81 N9          3.8490    2.5280    1.0980 n         1 MOL     -0.701350
     82 C25         2.7100    3.4830    0.9090 c3        1 MOL      0.263376
     83 C26         1.3320    2.8140    0.7280 c         1 MOL      0.585245
     84 O13         1.3410    1.7090    0.2060 o         1 MOL     -0.637100
     85 C27         2.9120    4.2260   -0.4120 c3        1 MOL      0.015744
     86 C28         4.0900    5.1940   -0.2890 ca        1 MOL     -0.001622
     87 C29         5.3510    4.9120   -0.7530 ca        1 MOL     -0.070194
     88 C30         3.7700    6.4670    0.1680 ca        1 MOL     -0.070194
     89 C31         6.3660    5.8660   -0.7510 ca        1 MOL     -0.331928
     90 C32         4.7100    7.4970    0.0990 ca        1 MOL     -0.331928
     91 C33         5.9850    7.1560   -0.3560 ca        1 MOL      0.387973
     92 O14         6.9180    8.1430   -0.3050 oh        1 MOL     -0.495824
     93 H37         3.9150    1.7580    0.4550 hn        1 MOL      0.499771
     94 H38         2.7090    4.2270    1.7050 h1        1 MOL      0.007185
     95 H39         2.0970    4.8220   -0.8090 hc        1 MOL     -0.028674
     96 H40         3.1350    3.5180   -1.2170 hc        1 MOL     -0.028674
     97 H41         5.6130    3.9520   -1.1610 ha        1 MOL      0.081982
     98 H42         2.7460    6.7160    0.3930 ha        1 MOL      0.081982
     99 H43         7.3730    5.6290   -1.0620 ha        1 MOL      0.176655
    100 H44         4.5740    8.4730    0.5380 ha        1 MOL      0.176655
    101 H45         6.6250    9.0470   -0.1270 ho        1 MOL      0.347755
    102 N10         0.2910    3.4020    1.2920 n         1 MOL     -0.655354
    103 C34        -1.0950    2.8580    1.3050 c3        1 MOL      0.070404
    104 C35        -2.0080    3.9810    0.6870 c         1 MOL      0.570096
    105 O15        -2.2500    5.0340    1.2420 o         1 MOL     -0.522568
    106 C36        -1.4780    2.3940    2.6790 c3        1 MOL      0.021888
    107 C37        -0.8940    0.9640    2.8070 c3        1 MOL      0.279533
    108 C38        -2.9190    2.5420    3.0860 c3        1 MOL     -0.235192
    109 C39        -0.9950    0.3720    4.2690 c3        1 MOL     -0.284026
    110 H46         0.5020    4.3270    1.6530 hn        1 MOL      0.337613
    111 H47        -1.0790    2.0680    0.5520 h1        1 MOL      0.092604
    112 H48        -0.9210    2.9490    3.4300 hc        1 MOL      0.042405
    113 H49         0.1550    0.9220    2.5110 hc        1 MOL     -0.055880
    114 H50        -1.3380    0.2460    2.1150 hc        1 MOL     -0.055880
    115 H51        -3.1570    3.6060    3.0090 hc        1 MOL      0.050850
    116 H52        -3.5450    2.0770    2.3270 hc        1 MOL      0.050850
    117 H53        -3.1290    2.2320    4.1160 hc        1 MOL      0.050850
    118 H54        -0.3350    0.9930    4.8750 hc        1 MOL      0.064142
    119 H55        -2.0120    0.4150    4.6410 hc        1 MOL      0.064142
    120 H56        -0.7490   -0.6830    4.2120 hc        1 MOL      0.064142
    121 N11        -2.6920    3.5910   -0.4180 n         1 MOL     -0.526813
    122 C40        -3.9280    4.2120   -0.9580 c3        1 MOL      0.154389
    123 C41        -5.1600    3.6390   -0.3000 c         1 MOL      0.323053
    124 O16        -5.0700    2.5940    0.3860 o         1 MOL     -0.232548
    125 C42        -3.9660    4.2240   -2.4950 c3        1 MOL     -0.102525
    126 O17        -4.3100    2.8690   -2.9230 oh        1 MOL     -0.589512
    127 H57        -2.3540    2.7040   -0.7790 hn        1 MOL      0.299975
    128 H58        -3.9180    5.2820   -0.7260 h1        1 MOL      0.055444
    129 H59        -3.0320    4.5430   -2.9440 h1        1 MOL      0.118985
    130 H60        -4.7400    4.8940   -2.8550 h1        1 MOL      0.118985
    131 H61        -3.6090    2.4550   -3.4390 ho        1 MOL      0.424528
    132 N12        -6.3710    4.2540   -0.5500 n         1 MOL     -0.364052
    133 C43        -7.6520    3.8380   -0.0390 c3        1 MOL      0.075562
    134 C44        -7.9700    2.3860   -0.5580 c         1 MOL      0.420082
    135 O18        -8.7510    1.6500    0.0320 o         1 MOL     -0.510739
    136 C45        -8.6840    4.8440   -0.5590 c3        1 MOL     -0.218099
    137 H62        -6.2850    5.1440   -1.0120 hn        1 MOL      0.263205
    138 H63        -7.7730    3.9160    1.0350 h1        1 MOL      0.093500
    139 H64        -9.6860    4.6450   -0.1690 hc        1 MOL      0.076744
    140 H65        -8.4300    5.8830   -0.3250 hc        1 MOL      0.076744
    141 H66        -8.7740    4.6980   -1.6300 hc        1 MOL      0.076744
    142 N13        -7.4100    1.9120   -1.6580 n         1 MOL     -0.226612
    143 C46        -7.4310    0.5350   -2.1810 c3        1 MOL      0.039861
    144 C47        -6.8740   -0.5460   -1.2200 c         1 MOL      0.396079
    145 O19        -7.4810   -1.6060   -1.1260 o         1 MOL     -0.531937
    146 C48        -6.6720    0.5190   -3.5590 c3        1 MOL     -0.343285
    147 H67        -7.0110    2.5860   -2.2840 hn        1 MOL      0.212848
    148 H68        -8.4590    0.3090   -2.4750 h1        1 MOL      0.089082
    149 H69        -5.7000    0.9400   -3.3340 hc        1 MOL      0.096429
    150 H70        -6.3570   -0.4430   -3.9690 hc        1 MOL      0.096429
    151 H71        -7.3110    1.0290   -4.2760 hc        1 MOL      0.096429
    152 N14        -5.7460   -0.2130   -0.6500 n         1 MOL     -0.194168
    153 C49        -5.0890   -1.0260    0.3860 c3        1 MOL     -0.056840
    154 C50        -5.8230   -0.7690    1.7870 c         1 MOL      0.481453
    155 O20        -6.0320   -1.6500    2.6220 o         1 MOL     -0.546837
    156 C51        -3.5940   -0.7870    0.4810 c3        1 MOL     -0.007476
    157 C52        -2.9490   -0.8670   -0.9290 c3        1 MOL     -0.041038
    158 C53        -1.4750   -0.5700   -0.9530 c         1 MOL      0.725561
    159 O21        -1.1030    0.5250   -1.4600 o         1 MOL     -0.739386
    160 O22        -0.6100   -1.3970   -0.5740 o         1 MOL     -0.739386
    161 H72        -5.3550    0.7120   -0.7760 hn        1 MOL      0.227201
    162 H73        -5.1860   -2.0730    0.1030 h1        1 MOL      0.031180
    163 H74        -3.1850   -1.5450    1.1570 hc        1 MOL      0.050071
    164 H75        -3.3840    0.1760    0.9500 hc        1 MOL      0.050071
    165 H76        -3.3350   -0.0400   -1.5320 hc        1 MOL     -0.035350
    166 H77        -3.1150   -1.8940   -1.2390 hc        1 MOL     -0.035350
    167 N15        -6.2920    0.4690    2.0180 n         1 MOL     -0.027199
    168 C54        -7.0880    0.8630    3.2540 c3        1 MOL     -0.466675
    169 H78        -6.9580    1.9280    3.4440 h1        1 MOL      0.168764
    170 H79        -8.1440    0.6490    3.0910 h1        1 MOL      0.168764
    171 H80        -6.7300    0.2950    4.1120 h1        1 MOL      0.168764
    172 H81        -6.0720    1.1820    1.3350 hn        1 MOL      0.003377
    173 Ca1         1.5260   -0.2630   -1.3560 Ca        1 MOL      1.789857
    174 O23         1.1820    1.9860   -2.8510 oh        1 MOL     -0.905927
    175 H82         0.4650    2.5550   -2.5500 ho        1 MOL      0.437331
    176 H83         1.5750    2.4550   -3.5880 ho        1 MOL      0.437331
@<TRIPOS>BOND
     1    1    2 1   
     2    1    4 1   
     3    1    5 1   
     4    1    6 1   
     5    2    3 2   
     6    2    7 1   
     7    7    8 1   
     8    7   15 1   
     9    8    9 1   
    10    8   11 1   
    11    8   16 1   
    12    9   10 2   
    13    9   19 1   
    14   11   12 1   
    15   11   17 1   
    16   11   18 1   
    17   12   13 1   
    18   12   14 1   
    19   19   20 1   
    20   19   28 1   
    21   20   21 1   
    22   20   23 1   
    23   20   29 1   
    24   21   22 2   
    25   21   41 1   
    26   23   24 1   
    27   23   30 1   
    28   23   31 1   
    29   24   25 1   
    30   24   32 1   
    31   24   33 1   
    32   25   26 1   
    33   25   34 1   
    34   25   35 1   
    35   26   27 1   
    36   26   36 1   
    37   26   37 1   
    38   27   38 1   
    39   27   39 1   
    40   27   40 1   
    41   41   42 1   
    42   41   49 1   
    43   42   43 1   
    44   42   45 1   
    45   42   50 1   
    46   43   44 2   
    47   43   53 1   
    48   45   46 1   
    49   45   51 1   
    50   45   52 1   
    51   46   47 1   
    52   46   48 1   
    53   53   54 1   
    54   53   57 1   
    55   54   55 1   
    56   54   58 1   
    57   54   59 1   
    58   55   56 2   
    59   55   60 1   
    60   60   61 1   
    61   60   68 1   
    62   61   62 1   
    63   61   64 1   
    64   61   69 1   
    65   62   63 2   
    66   62   74 1   
    67   64   65 1   
    68   64   70 1   
    69   64   71 1   
    70   65   66 1   
    71   65   67 2   
    72   66   72 1   
    73   66   73 1   
    74   74   75 1   
    75   74   78 1   
    76   75   76 1   
    77   75   79 1   
    78   75   80 1   
    79   76   77 2   
    80   76   81 1   
    81   81   82 1   
    82   81   93 1   
    83   82   83 1   
    84   82   85 1   
    85   82   94 1   
    86   83   84 2   
    87   83  102 1   
    88   85   86 1   
    89   85   95 1   
    90   85   96 1   
    91   86   87 ar  
    92   86   88 ar  
    93   87   89 ar  
    94   87   97 1   
    95   88   90 ar  
    96   88   98 1   
    97   89   91 ar  
    98   89   99 1   
    99   90   91 ar  
   100   90  100 1   
   101   91   92 1   
   102   92  101 1   
   103  102  103 1   
   104  102  110 1   
   105  103  104 1   
   106  103  106 1   
   107  103  111 1   
   108  104  105 2   
   109  104  121 1   
   110  106  107 1   
   111  106  108 1   
   112  106  112 1   
   113  107  109 1   
   114  107  113 1   
   115  107  114 1   
   116  108  115 1   
   117  108  116 1   
   118  108  117 1   
   119  109  118 1   
   120  109  119 1   
   121  109  120 1   
   122  121  122 1   
   123  121  127 1   
   124  122  123 1   
   125  122  125 1   
   126  122  128 1   
   127  123  124 2   
   128  123  132 1   
   129  125  126 1   
   130  125  129 1   
   131  125  130 1   
   132  126  131 1   
   133  132  133 1   
   134  132  137 1   
   135  133  134 1   
   136  133  136 1   
   137  133  138 1   
   138  134  135 2   
   139  134  142 1   
   140  136  139 1   
   141  136  140 1   
   142  136  141 1   
   143  142  143 1   
   144  142  147 1   
   145  143  144 1   
   146  143  146 1   
   147  143  148 1   
   148  144  145 2   
   149  144  152 1   
   150  146  149 1   
   151  146  150 1   
   152  146  151 1   
   153  152  153 1   
   154  152  161 1   
   155  153  154 1   
   156  153  156 1   
   157  153  162 1   
   158  154  155 2   
   159  154  167 1   
   160  156  157 1   
   161  156  163 1   
   162  156  164 1   
   163  157  158 1   
   164  157  165 1   
   165  157  166 1   
   166  158  159 1   
   167  158  160 1   
   168  167  168 1   
   169  167  172 1   
   170  168  169 1   
   171  168  170 1   
   172  168  171 1   
   173  174  175 1   
   174  174  176 1   
@<TRIPOS>SUBSTRUCTURE
     1 MOL         1 TEMP              0 ****  ****    0 ROOT
