@<TRIPOS>MOLECULE
MOL
  175   173     1     0     0
SMALL
resp


@<TRIPOS>ATOM
      1 C1          0.1650    4.2920    5.4680 c3        1 MOL     -0.409314
      2 C2         -0.4730    4.1360    4.0680 c         1 MOL      0.774691
      3 O1          0.2480    4.1570    3.1120 o         1 MOL     -0.565956
      4 H1         -0.4250    4.9930    6.0590 hc        1 MOL      0.095726
      5 H2          0.1850    3.3240    5.9680 hc        1 MOL      0.095726
      6 H3          1.1820    4.6700    5.3650 hc        1 MOL      0.095726
      7 N1         -1.7830    3.9060    4.0030 n         1 MOL     -0.735282
      8 C3         -2.4090    3.6650    2.7170 c3        1 MOL      0.419881
      9 C4         -2.6240    4.8430    1.7900 c         1 MOL      0.400803
     10 O2         -3.1030    5.9000    2.2990 o         1 MOL     -0.576994
     11 C5         -3.6670    2.9830    3.0010 c3        1 MOL     -0.387737
     12 C6         -4.3460    2.5130    1.7330 c         1 MOL      0.686248
     13 O3         -5.5700    2.7990    1.5770 o         1 MOL     -0.630628
     14 O4         -3.7070    1.7820    0.9350 o         1 MOL     -0.630628
     15 H4         -2.3570    3.7840    4.8300 hn        1 MOL      0.341891
     16 H5         -1.8450    2.8750    2.2250 h1        1 MOL     -0.002348
     17 H6         -4.3640    3.6440    3.5160 hc        1 MOL      0.072172
     18 H7         -3.4700    2.0510    3.5300 hc        1 MOL      0.072172
     19 N2         -2.3680    4.6790    0.5170 n         1 MOL     -0.224615
     20 C7         -2.6490    5.6480   -0.6060 c3        1 MOL      0.149577
     21 C8         -3.4990    5.0390   -1.7830 c         1 MOL      0.454915
     22 O5         -3.7790    5.7430   -2.7920 o         1 MOL     -0.573486
     23 C9         -1.2610    6.0040   -1.0230 c3        1 MOL     -0.159432
     24 H8         -1.7720    3.8860    0.3270 hn        1 MOL      0.180271
     25 H9         -3.1610    6.5350   -0.2430 h1        1 MOL      0.039277
     26 H10        -0.8290    5.0340   -1.2650 hc        1 MOL      0.039218
     27 H11        -1.2400    6.6490   -1.9030 hc        1 MOL      0.039218
     28 H12        -0.6470    6.3660   -0.1980 hc        1 MOL      0.039218
     29 N3         -4.0510    3.8100   -1.7110 n         1 MOL     -0.322043
     30 C10        -4.9030    3.2600   -2.8500 c3        1 MOL      0.140172
     31 C11        -6.0950    2.3410   -2.4910 c         1 MOL      0.294186
     32 O6         -6.9640    2.0730   -3.3290 o         1 MOL     -0.534967
     33 C12        -4.0450    2.5350   -3.8420 c3        1 MOL     -0.104701
     34 C13        -3.2930    1.3440   -3.2820 c         1 MOL      0.700597
     35 O7         -2.3470    0.8030   -3.8730 o         1 MOL     -0.712195
     36 O8         -3.5400    0.9260   -2.1430 o         1 MOL     -0.712195
     37 H13        -3.9550    3.3360   -0.8110 hn        1 MOL      0.165725
     38 H14        -5.3750    4.0940   -3.3570 h1        1 MOL      0.063498
     39 H15        -3.3030    3.2410   -4.1990 hc        1 MOL      0.029952
     40 H16        -4.5790    2.2890   -4.7670 hc        1 MOL      0.029952
     41 N4         -6.0950    1.7890   -1.2550 n         1 MOL     -0.025046
     42 C14        -7.1980    0.9780   -0.6710 c3        1 MOL     -0.199387
     43 C15        -7.1390   -0.5240   -1.0920 c         1 MOL      0.469201
     44 O9         -8.1280   -1.2520   -0.9570 o         1 MOL     -0.602701
     45 H17        -5.4190    2.1050   -0.5770 hn        1 MOL      0.056987
     46 H18        -8.1850    1.3340   -0.9540 h1        1 MOL      0.104950
     47 H19        -7.1930    1.1630    0.4030 h1        1 MOL      0.104950
     48 N5         -6.0410   -1.0110   -1.6270 n         1 MOL     -0.197817
     49 C16        -5.8960   -2.4330   -2.0930 c3        1 MOL     -0.076286
     50 C17        -5.8520   -3.5050   -1.0100 c         1 MOL      0.452715
     51 O10        -5.6060   -4.7050   -1.2960 o         1 MOL     -0.517662
     52 C18        -4.6760   -2.5100   -3.0840 c3        1 MOL     -0.128425
     53 C19        -3.3340   -2.4820   -2.4500 c         1 MOL      0.580775
     54 N6         -2.3190   -2.9750   -3.2020 n         1 MOL     -0.614750
     55 O11        -3.1510   -2.1190   -1.2890 o         1 MOL     -0.574500
     56 H20        -5.1780   -0.4790   -1.6890 hn        1 MOL      0.199057
     57 H21        -6.7900   -2.7000   -2.6600 h1        1 MOL      0.127731
     58 H22        -4.6840   -1.7270   -3.8490 hc        1 MOL      0.055459
     59 H23        -4.8420   -3.4380   -3.6330 hc        1 MOL      0.055459
     60 H24        -2.4120   -3.2550   -4.1720 hn        1 MOL      0.330677
     61 H25        -1.4180   -2.7470   -2.8120 hn        1 MOL      0.330677
     62 N7         -6.0190   -3.2130    0.2740 n         1 MOL     -0.320446
     63 C20        -5.9860   -4.3370    1.3070 c3        1 MOL     -0.075370
     64 C21        -4.5820   -4.8330    1.6680 c         1 MOL      0.517459
     65 O12        -4.6200   -5.8920    2.3030 o         1 MOL     -0.583420
     66 H26        -6.0290   -2.2650    0.5960 hn        1 MOL      0.244199
     67 H27        -6.5540   -5.2310    1.0650 h1        1 MOL      0.089024
     68 H28        -6.5150   -3.9980    2.1990 h1        1 MOL      0.089024
     69 N8         -3.5000   -4.1280    1.3360 n         1 MOL     -0.281013
     70 C22        -2.1250   -4.6180    1.5400 c3        1 MOL     -0.128183
     71 C23        -1.1990   -3.4310    1.6860 c         1 MOL      0.576186
     72 O13        -1.4720   -2.3850    1.0690 o         1 MOL     -0.571458
     73 C24        -1.6180   -5.5320    0.3740 c3        1 MOL      0.604420
     74 C25        -1.8500   -7.0410    0.5680 c3        1 MOL     -0.460008
     75 O14        -2.0970   -5.1670   -0.8260 oh        1 MOL     -0.556054
     76 H29        -3.6210   -3.2360    0.8750 hn        1 MOL      0.168181
     77 H30        -2.1100   -5.1110    2.5190 h1        1 MOL      0.064217
     78 H31        -0.5210   -5.5080    0.3750 h1        1 MOL     -0.059281
     79 H32        -1.8050   -4.2640   -0.9650 ho        1 MOL      0.289686
     80 H33        -1.4910   -7.3930    1.5370 hc        1 MOL      0.105784
     81 H34        -2.9350   -7.0940    0.6500 hc        1 MOL      0.105784
     82 H35        -1.4620   -7.6820   -0.2200 hc        1 MOL      0.105784
     83 N9         -0.1640   -3.5930    2.4840 n         1 MOL     -0.495869
     84 C26         1.0080   -2.6340    2.4460 c3        1 MOL     -0.140434
     85 C27         1.8550   -3.0270    1.1980 c         1 MOL      0.428986
     86 O15         2.1900   -4.2010    0.9900 o         1 MOL     -0.551646
     87 C28         1.7480   -2.5280    3.7820 c3        1 MOL      0.418430
     88 C29         0.7850   -2.2100    4.9530 c3        1 MOL      0.036292
     89 C30         2.7940   -1.4200    3.6180 c3        1 MOL     -0.389477
     90 C31         1.6360   -2.5610    6.2310 c3        1 MOL     -0.187958
     91 H36        -0.0350   -4.4980    2.9110 hn        1 MOL      0.294103
     92 H37         0.6160   -1.6540    2.1970 h1        1 MOL      0.065393
     93 H38         2.2950   -3.4400    4.0290 hc        1 MOL     -0.053431
     94 H39        -0.0500   -2.9040    4.9360 hc        1 MOL     -0.008894
     95 H40         0.3980   -1.1880    4.9340 hc        1 MOL     -0.008894
     96 H41         2.2670   -0.5360    3.2700 hc        1 MOL      0.083646
     97 H42         3.3950   -1.2520    4.5020 hc        1 MOL      0.083646
     98 H43         3.4670   -1.6850    2.8040 hc        1 MOL      0.083646
     99 H44         1.0670   -2.3200    7.1250 hc        1 MOL      0.034734
    100 H45         1.8860   -3.6220    6.1710 hc        1 MOL      0.034734
    101 H46         2.5620   -1.9890    6.3310 hc        1 MOL      0.034734
    102 N10         2.0200   -2.0670    0.2660 n         1 MOL     -0.123163
    103 C32         2.8050   -2.2150   -0.9760 c3        1 MOL     -0.006766
    104 C33         4.2010   -1.6570   -0.7300 c         1 MOL      0.464183
    105 O16         4.3100   -0.9800    0.3460 o         1 MOL     -0.410912
    106 C34         2.1550   -1.4550   -2.1520 c3        1 MOL     -0.365659
    107 C35         0.6360   -1.6770   -2.3000 c         1 MOL      0.811408
    108 O17        -0.2060   -0.8620   -1.7730 o         1 MOL     -0.688241
    109 O18         0.2890   -2.6220   -3.1100 o         1 MOL     -0.688241
    110 H47         1.7880   -1.1030    0.4740 hn        1 MOL      0.154778
    111 H48         2.9460   -3.2820   -1.1440 h1        1 MOL      0.083933
    112 H49         2.7040   -1.7340   -3.0460 hc        1 MOL      0.108359
    113 H50         2.4190   -0.4110   -1.9970 hc        1 MOL      0.108359
    114 N11         5.2620   -1.9340   -1.5180 n         1 MOL     -0.646217
    115 C36         6.5660   -1.3990   -1.2800 c3        1 MOL      0.544702
    116 C37         6.6900    0.1420   -1.2360 c         1 MOL      0.256494
    117 O19         7.2980    0.6770   -0.3660 o         1 MOL     -0.445834
    118 C38         7.6450   -2.0830   -2.1550 c3        1 MOL     -0.312836
    119 C39         9.0800   -1.6900   -1.7450 ca        1 MOL      0.143546
    120 C40         9.5900   -1.8940   -0.4980 ca        1 MOL     -0.155990
    121 C41         9.8550   -1.1080   -2.6980 ca        1 MOL     -0.155990
    122 C42        10.9140   -1.5290   -0.1430 ca        1 MOL     -0.159947
    123 C43        11.1960   -0.7300   -2.4180 ca        1 MOL     -0.159947
    124 C44        11.6540   -0.9300   -1.1440 ca        1 MOL     -0.022775
    125 H51         5.0200   -2.5410   -2.2900 hn        1 MOL      0.327640
    126 H52         6.7840   -1.7940   -0.2910 h1        1 MOL      0.009437
    127 H53         7.4000   -1.7300   -3.1550 hc        1 MOL      0.074330
    128 H54         7.4260   -3.1580   -2.1520 hc        1 MOL      0.074330
    129 H55         9.0330   -2.3970    0.2750 ha        1 MOL      0.111071
    130 H56         9.3720   -1.0190   -3.6560 ha        1 MOL      0.111071
    131 H57        11.2780   -1.7710    0.8400 ha        1 MOL      0.129094
    132 H58        11.7990   -0.1950   -3.1260 ha        1 MOL      0.129094
    133 H59        12.6910   -0.6510   -0.9880 ha        1 MOL      0.064875
    134 N12         5.9870    0.9030   -2.1420 n         1 MOL     -0.099855
    135 C45         5.9110    2.3610   -2.0210 c3        1 MOL      0.092165
    136 C46         5.2020    2.9600   -0.7700 c         1 MOL      0.211360
    137 O20         5.3560    4.1740   -0.4230 o         1 MOL     -0.508940
    138 C47         5.2140    2.8780   -3.3220 c3        1 MOL     -0.213362
    139 C48         5.2660    1.6540   -4.2450 c3        1 MOL      0.190182
    140 C49         5.2730    0.5260   -3.2990 c3        1 MOL     -0.064751
    141 H60         6.9510    2.6830   -1.9880 h1        1 MOL      0.071146
    142 H61         4.1760    3.1560   -3.1410 hc        1 MOL      0.088249
    143 H62         5.7640    3.7310   -3.7150 hc        1 MOL      0.088249
    144 H63         4.5170    1.6260   -5.0410 hc        1 MOL     -0.039324
    145 H64         6.2610    1.5240   -4.6760 hc        1 MOL     -0.039324
    146 H65         4.2210    0.2690   -3.2140 h1        1 MOL      0.034933
    147 H66         5.6980   -0.3560   -3.7870 h1        1 MOL      0.034933
    148 N13         4.4260    2.1570   -0.0460 n         1 MOL     -0.035957
    149 C50         3.8290    2.5660    1.3030 c3        1 MOL     -0.010481
    150 C51         4.5850    2.0650    2.5650 c         1 MOL      0.344888
    151 O21         4.5950    2.7000    3.6460 o         1 MOL     -0.553424
    152 C52         2.3840    2.0590    1.4350 c3        1 MOL      0.006642
    153 C53         1.4140    2.6820    0.3560 c3        1 MOL     -0.135404
    154 C54         0.1570    1.8250    0.3410 c         1 MOL      0.606422
    155 O22        -0.9030    2.2230   -0.2870 o         1 MOL     -0.673889
    156 O23         0.1730    0.7100    0.8810 o         1 MOL     -0.673889
    157 H67         4.2810    1.2280   -0.4270 hn        1 MOL      0.095909
    158 H68         3.8520    3.6550    1.4470 h1        1 MOL      0.112912
    159 H69         1.9870    2.3670    2.4020 hc        1 MOL      0.043077
    160 H70         2.4360    0.9780    1.3570 hc        1 MOL      0.043077
    161 H71         1.8280    2.6050   -0.6540 hc        1 MOL      0.059716
    162 H72         1.1730    3.7240    0.5730 hc        1 MOL      0.059716
    163 N14         5.3970    1.0710    2.3680 n         1 MOL      0.040046
    164 C55         6.3810    0.5770    3.3790 c3        1 MOL     -0.145508
    165 H73         6.1460    1.0040    4.3530 h1        1 MOL      0.065517
    166 H74         6.3280   -0.5110    3.4370 h1        1 MOL      0.065517
    167 H75         7.3870    0.8770    3.0840 h1        1 MOL      0.065517
    168 H76         5.3900    0.5750    1.4960 hn        1 MOL     -0.005669
    169 Ca1        -2.1700   -0.0180   -0.2500 Ca        1 MOL      1.670466
    170 O24        -2.0830    0.0140    2.5160 oh        1 MOL     -0.732340
    171 H77        -1.1770    0.2780    2.3730 ho        1 MOL      0.363255
    172 H78        -2.2490    0.2500    3.4250 ho        1 MOL      0.363255
    173 O25        -4.4650   -0.7240    0.9380 oh        1 MOL     -0.732340
    174 H79        -4.4620    0.2150    1.1280 ho        1 MOL      0.363255
    175 H80        -4.7910   -1.1280    1.7390 ho        1 MOL      0.363255
@<TRIPOS>BOND
     1    1    2 1   
     2    1    4 1   
     3    1    5 1   
     4    1    6 1   
     5    2    3 2   
     6    2    7 1   
     7    7    8 1   
     8    7   15 1   
     9    8    9 1   
    10    8   11 1   
    11    8   16 1   
    12    9   10 2   
    13    9   19 1   
    14   11   12 1   
    15   11   17 1   
    16   11   18 1   
    17   12   13 1   
    18   12   14 1   
    19   19   20 1   
    20   19   24 1   
    21   20   21 1   
    22   20   23 1   
    23   20   25 1   
    24   21   22 2   
    25   21   29 1   
    26   23   26 1   
    27   23   27 1   
    28   23   28 1   
    29   29   30 1   
    30   29   37 1   
    31   30   31 1   
    32   30   33 1   
    33   30   38 1   
    34   31   32 2   
    35   31   41 1   
    36   33   34 1   
    37   33   39 1   
    38   33   40 1   
    39   34   35 1   
    40   34   36 1   
    41   41   42 1   
    42   41   45 1   
    43   42   43 1   
    44   42   46 1   
    45   42   47 1   
    46   43   44 2   
    47   43   48 1   
    48   48   49 1   
    49   48   56 1   
    50   49   50 1   
    51   49   52 1   
    52   49   57 1   
    53   50   51 2   
    54   50   62 1   
    55   52   53 1   
    56   52   58 1   
    57   52   59 1   
    58   53   54 1   
    59   53   55 2   
    60   54   60 1   
    61   54   61 1   
    62   62   63 1   
    63   62   66 1   
    64   63   64 1   
    65   63   67 1   
    66   63   68 1   
    67   64   65 2   
    68   64   69 1   
    69   69   70 1   
    70   69   76 1   
    71   70   71 1   
    72   70   73 1   
    73   70   77 1   
    74   71   72 2   
    75   71   83 1   
    76   73   74 1   
    77   73   75 1   
    78   73   78 1   
    79   74   80 1   
    80   74   81 1   
    81   74   82 1   
    82   75   79 1   
    83   83   84 1   
    84   83   91 1   
    85   84   85 1   
    86   84   87 1   
    87   84   92 1   
    88   85   86 2   
    89   85  102 1   
    90   87   88 1   
    91   87   89 1   
    92   87   93 1   
    93   88   90 1   
    94   88   94 1   
    95   88   95 1   
    96   89   96 1   
    97   89   97 1   
    98   89   98 1   
    99   90   99 1   
   100   90  100 1   
   101   90  101 1   
   102  102  103 1   
   103  102  110 1   
   104  103  104 1   
   105  103  106 1   
   106  103  111 1   
   107  104  105 2   
   108  104  114 1   
   109  106  107 1   
   110  106  112 1   
   111  106  113 1   
   112  107  108 1   
   113  107  109 1   
   114  114  115 1   
   115  114  125 1   
   116  115  116 1   
   117  115  118 1   
   118  115  126 1   
   119  116  117 2   
   120  116  134 1   
   121  118  119 1   
   122  118  127 1   
   123  118  128 1   
   124  119  120 ar  
   125  119  121 ar  
   126  120  122 ar  
   127  120  129 1   
   128  121  123 ar  
   129  121  130 1   
   130  122  124 ar  
   131  122  131 1   
   132  123  124 ar  
   133  123  132 1   
   134  124  133 1   
   135  134  135 1   
   136  134  140 1   
   137  135  136 1   
   138  135  138 1   
   139  135  141 1   
   140  136  137 2   
   141  136  148 1   
   142  138  139 1   
   143  138  142 1   
   144  138  143 1   
   145  139  140 1   
   146  139  144 1   
   147  139  145 1   
   148  140  146 1   
   149  140  147 1   
   150  148  149 1   
   151  148  157 1   
   152  149  150 1   
   153  149  152 1   
   154  149  158 1   
   155  150  151 2   
   156  150  163 1   
   157  152  153 1   
   158  152  159 1   
   159  152  160 1   
   160  153  154 1   
   161  153  161 1   
   162  153  162 1   
   163  154  155 1   
   164  154  156 1   
   165  163  164 1   
   166  163  168 1   
   167  164  165 1   
   168  164  166 1   
   169  164  167 1   
   170  170  171 1   
   171  170  172 1   
   172  173  174 1   
   173  173  175 1   
@<TRIPOS>SUBSTRUCTURE
     1 MOL         1 TEMP              0 ****  ****    0 ROOT
