@<TRIPOS>MOLECULE
MOL
  183   181     1     0     0
SMALL
resp


@<TRIPOS>ATOM
      1 C1          0.5870    1.3640   -6.4780 c3        1 MOL     -0.308072
      2 C2          0.8540    1.4820   -4.9370 c         1 MOL      0.738629
      3 O1          0.1170    2.0400   -4.1580 o         1 MOL     -0.571872
      4 H1          0.9910    0.4200   -6.8440 hc        1 MOL      0.069137
      5 H2         -0.4870    1.3950   -6.6650 hc        1 MOL      0.069137
      6 H3          1.0710    2.1910   -6.9960 hc        1 MOL      0.069137
      7 N1          2.0090    1.0480   -4.5040 n         1 MOL     -0.650831
      8 C3          2.5050    1.1450   -3.1240 c3        1 MOL      0.336330
      9 C4          2.7970    2.5960   -2.8240 c         1 MOL      0.548427
     10 O2          3.4480    3.1770   -3.6820 o         1 MOL     -0.598969
     11 C5          3.7280    0.2150   -2.9480 c3        1 MOL     -0.397494
     12 C6          4.4840    0.2230   -1.6590 c         1 MOL      0.756423
     13 O3          5.6010   -0.2420   -1.5680 o         1 MOL     -0.585892
     14 O4          3.9300    0.8230   -0.6800 o         1 MOL     -0.585892
     15 H4          2.6420    0.5520   -5.1260 hn        1 MOL      0.310086
     16 H5          1.7180    0.6680   -2.5350 h1        1 MOL     -0.002124
     17 H6          4.4240    0.4990   -3.7360 hc        1 MOL      0.075901
     18 H7          3.4620   -0.8300   -3.0900 hc        1 MOL      0.075901
     19 N2          2.5020    3.2190   -1.6620 n         1 MOL     -0.283272
     20 C7          2.5710    4.5530   -1.3540 c3        1 MOL     -0.098602
     21 C8          3.5590    4.7980   -0.1200 c         1 MOL      0.676703
     22 O5          3.9210    5.9470    0.1350 o         1 MOL     -0.605368
     23 C9          1.1730    5.1580   -1.0570 c3        1 MOL      0.139062
     24 C10         0.1440    4.6710   -2.1620 c3        1 MOL      0.152525
     25 C11         1.2130    6.7180   -1.1380 c3        1 MOL     -0.129512
     26 C12        -1.3140    4.9620   -1.8880 c3        1 MOL     -0.096389
     27 H8          2.1100    2.5660   -0.9960 hn        1 MOL      0.165856
     28 H9          2.9670    5.1540   -2.1690 h1        1 MOL      0.075167
     29 H10         0.8650    4.8640   -0.0510 hc        1 MOL      0.014082
     30 H11         0.1100    3.5840   -2.2640 hc        1 MOL     -0.024962
     31 H12         0.4410    5.1490   -3.0990 hc        1 MOL     -0.024962
     32 H13         1.6670    7.0760   -2.0640 hc        1 MOL      0.010090
     33 H14         0.2760    7.2080   -0.8980 hc        1 MOL      0.010090
     34 H15         1.8720    7.0530   -0.3410 hc        1 MOL      0.010090
     35 H16        -1.3580    5.9960   -2.2070 hc        1 MOL     -0.004854
     36 H17        -1.9700    4.3960   -2.5510 hc        1 MOL     -0.004854
     37 H18        -1.6080    4.8570   -0.8400 hc        1 MOL     -0.004854
     38 N3          4.2550    3.8080    0.4680 n         1 MOL     -0.515619
     39 C13         5.1910    3.9200    1.5620 c3        1 MOL      0.133666
     40 C14         6.4100    2.9860    1.4050 c         1 MOL      0.373569
     41 O6          7.3280    3.0270    2.2610 o         1 MOL     -0.523948
     42 C15         4.4890    3.8400    2.9340 c3        1 MOL     -0.109174
     43 C16         3.9430    2.4410    3.3100 c         1 MOL      0.783177
     44 O7          3.5930    2.2170    4.4730 o         1 MOL     -0.740300
     45 O8          3.7550    1.6080    2.4500 o         1 MOL     -0.740300
     46 H19         4.1660    2.8520    0.1750 hn        1 MOL      0.157172
     47 H20         5.6940    4.8840    1.6400 h1        1 MOL      0.058240
     48 H21         3.6750    4.5570    3.0480 hc        1 MOL      0.015597
     49 H22         5.2600    4.1610    3.6400 hc        1 MOL      0.015597
     50 N4          6.5230    2.1670    0.4130 n         1 MOL     -0.129516
     51 C17         7.8420    1.7290   -0.0180 c3        1 MOL     -0.226506
     52 C18         8.2330    0.3780    0.6650 c         1 MOL      0.459239
     53 O9          9.3760    0.1770    1.1470 o         1 MOL     -0.591074
     54 H23         5.7640    1.7480   -0.1180 hn        1 MOL      0.176520
     55 H24         8.5560    2.5240    0.1420 h1        1 MOL      0.108873
     56 H25         7.6710    1.6250   -1.0950 h1        1 MOL      0.108873
     57 N5          7.3290   -0.5950    0.8150 n         1 MOL     -0.074546
     58 C19         7.5530   -1.9920    1.3660 c3        1 MOL      0.009208
     59 C20         7.3180   -3.1420    0.3130 c         1 MOL      0.331447
     60 O10         7.6110   -4.3560    0.4730 o         1 MOL     -0.547067
     61 C21         6.5870   -2.2140    2.5290 c3        1 MOL     -0.048864
     62 C22         5.1230   -1.9050    2.1820 c         1 MOL      0.685616
     63 O11         4.2680   -1.7390    3.0700 o         1 MOL     -0.736820
     64 O12         4.7650   -1.8280    0.9890 o         1 MOL     -0.736820
     65 H26         6.4310   -0.2900    0.4710 hn        1 MOL      0.053439
     66 H27         8.6120   -1.9880    1.6370 h1        1 MOL      0.079515
     67 H28         6.9270   -1.5990    3.3670 hc        1 MOL      0.020535
     68 H29         6.8070   -3.2290    2.8900 hc        1 MOL      0.020535
     69 N6          6.9130   -2.6500   -0.8210 n         1 MOL     -0.127045
     70 C23         6.6340   -3.4080   -2.0630 c3        1 MOL     -0.076289
     71 C24         5.3080   -4.1530   -1.9470 c         1 MOL      0.512354
     72 O13         5.0540   -5.1200   -2.6460 o         1 MOL     -0.582605
     73 H30         6.7850   -1.6450   -0.8610 hn        1 MOL      0.112449
     74 H31         7.4890   -4.0390   -2.3420 h1        1 MOL      0.060179
     75 H32         6.4980   -2.6100   -2.7930 h1        1 MOL      0.060179
     76 N7          4.3800   -3.6540   -1.0850 n         1 MOL     -0.154413
     77 C25         2.9530   -4.1010   -1.1490 c3        1 MOL     -0.006718
     78 C26         1.8370   -2.9580   -1.1510 c         1 MOL      0.689538
     79 O14         2.1520   -1.8220   -0.8270 o         1 MOL     -0.775506
     80 C27         2.6840   -5.1890   -0.0660 c3        1 MOL     -0.162339
     81 C28         3.0040   -4.7080    1.3140 c3        1 MOL     -0.066306
     82 C29         1.8830   -3.8460    1.9750 c         1 MOL      0.397158
     83 N8          0.9350   -4.4190    2.7040 n         1 MOL     -0.757698
     84 O15         1.7260   -2.6630    1.7900 o         1 MOL     -0.198970
     85 H33         4.5140   -2.7620   -0.6160 hn        1 MOL      0.177212
     86 H34         2.7730   -4.6420   -2.0770 h1        1 MOL      0.035238
     87 H35         3.3220   -6.0620   -0.1780 hc        1 MOL      0.052306
     88 H36         1.6550   -5.5560   -0.1290 hc        1 MOL      0.052306
     89 H37         3.9210   -4.1410    1.4470 hc        1 MOL      0.055578
     90 H38         3.1320   -5.5810    1.9470 hc        1 MOL      0.055578
     91 H39         0.8610   -5.4230    2.7600 hn        1 MOL      0.336583
     92 H40         0.1520   -3.8960    3.0630 hn        1 MOL      0.336583
     93 N9          0.5760   -3.3860   -1.3960 n         1 MOL     -0.573038
     94 C30        -0.5820   -2.4820   -1.5950 c3        1 MOL     -0.005891
     95 C31        -1.8190   -2.9830   -0.8490 c         1 MOL      0.463347
     96 O16        -2.5420   -3.8170   -1.3500 o         1 MOL     -0.563746
     97 C32        -0.8860   -2.3220   -3.1230 c3        1 MOL      0.261079
     98 C33        -1.9410   -1.2050   -3.3860 c3        1 MOL     -0.271124
     99 C34         0.2870   -1.8830   -3.9880 c3        1 MOL     -0.271124
    100 H41         0.4080   -4.3520   -1.6290 hn        1 MOL      0.325297
    101 H42        -0.3090   -1.5160   -1.1690 h1        1 MOL      0.249694
    102 H43        -1.1870   -3.2790   -3.5350 hc        1 MOL     -0.033987
    103 H44        -2.0960   -1.2320   -4.4690 hc        1 MOL      0.052860
    104 H45        -2.8620   -1.4690   -2.8730 hc        1 MOL      0.052860
    105 H46        -1.5000   -0.2560   -3.0770 hc        1 MOL      0.052860
    106 H47        -0.0900   -2.1150   -4.9810 hc        1 MOL      0.052860
    107 H48         0.5020   -0.8430   -3.7560 hc        1 MOL      0.052860
    108 H49         1.1260   -2.5730   -3.9110 hc        1 MOL      0.052860
    109 N10        -2.0400   -2.4310    0.3440 n         1 MOL     -0.188664
    110 C35        -3.2390   -2.3970    1.1650 c3        1 MOL      0.107687
    111 C36        -4.4300   -1.9830    0.3120 c         1 MOL      0.255993
    112 O17        -4.3250   -1.2530   -0.6930 o         1 MOL     -0.172126
    113 C37        -3.0210   -1.5270    2.3750 c3        1 MOL     -0.188687
    114 C38        -2.0860   -2.1990    3.3240 c         1 MOL      0.674093
    115 N11        -0.8110   -1.8740    3.3950 n         1 MOL     -0.689409
    116 O18        -2.5350   -3.0430    4.1180 o         1 MOL     -0.603018
    117 H50        -1.2890   -1.8720    0.7460 hn        1 MOL      0.004140
    118 H51        -3.4640   -3.3900    1.5530 h1        1 MOL      0.034202
    119 H52        -3.9760   -1.6040    2.9040 hc        1 MOL      0.070055
    120 H53        -2.9000   -0.5120    2.0260 hc        1 MOL      0.070055
    121 H54        -0.3660   -1.0540    2.9930 hn        1 MOL      0.321465
    122 H55        -0.3710   -2.1760    4.2540 hn        1 MOL      0.321465
    123 N12        -5.6150   -2.4490    0.6850 n         1 MOL     -0.477385
    124 C39        -6.9020   -1.8590    0.1600 c3        1 MOL      0.228003
    125 C40        -6.9120   -0.3890    0.1650 c         1 MOL      0.686063
    126 O19        -7.1460    0.2340   -0.8480 o         1 MOL     -0.589745
    127 C41        -8.1300   -2.5310    0.6860 c3        1 MOL     -0.086019
    128 C42        -9.4420   -1.9450    0.1000 ca        1 MOL      0.043520
    129 C43        -9.9130   -2.4730   -1.1610 ca        1 MOL     -0.215343
    130 C44       -10.1670   -0.9660    0.7430 ca        1 MOL     -0.215343
    131 C45       -11.0240   -1.9440   -1.7950 ca        1 MOL     -0.166848
    132 C46       -11.2210   -0.3710    0.1150 ca        1 MOL     -0.166848
    133 C47       -11.6810   -0.8430   -1.1610 ca        1 MOL      0.267525
    134 O20       -12.7630   -0.2460   -1.7830 oh        1 MOL     -0.511386
    135 H56        -5.6680   -3.1120    1.4420 hn        1 MOL      0.295555
    136 H57        -6.9470   -2.1300   -0.8950 h1        1 MOL      0.012822
    137 H58        -8.1010   -2.4230    1.7720 hc        1 MOL      0.021645
    138 H59        -8.0740   -3.5950    0.4780 hc        1 MOL      0.021645
    139 H60        -9.2570   -3.2180   -1.5970 ha        1 MOL      0.146571
    140 H61        -9.7150   -0.6250    1.6660 ha        1 MOL      0.146571
    141 H62       -11.4200   -2.2540   -2.7510 ha        1 MOL      0.129215
    142 H63       -11.7420    0.4240    0.6310 ha        1 MOL      0.129215
    143 H64       -13.0450    0.5600   -1.3490 ho        1 MOL      0.374639
    144 N13        -6.5700    0.0680    1.3360 n         1 MOL     -0.456299
    145 C48        -6.3740    1.4370    1.7840 c3        1 MOL     -0.014282
    146 C49        -5.3330    2.2710    0.8800 c         1 MOL      0.348483
    147 O21        -5.2720    3.4940    0.8730 o         1 MOL     -0.494791
    148 C50        -5.9320    1.4380    3.2310 c3        1 MOL      0.052335
    149 C51        -6.0840    2.7870    3.9150 c3        1 MOL     -0.257323
    150 C52        -5.5840    2.8460    5.3730 c         1 MOL      0.770012
    151 O22        -6.3090    2.4190    6.2620 o         1 MOL     -0.752018
    152 O23        -4.4840    3.3930    5.6390 o         1 MOL     -0.752018
    153 H65        -6.3860   -0.5790    2.0920 hn        1 MOL      0.247721
    154 H66        -7.3520    1.8650    1.5880 h1        1 MOL      0.079448
    155 H67        -4.8980    1.0680    3.2430 hc        1 MOL     -0.006914
    156 H68        -6.4990    0.7230    3.8240 hc        1 MOL     -0.006914
    157 H69        -7.1200    3.0960    3.7770 hc        1 MOL      0.039116
    158 H70        -5.4690    3.4620    3.3160 hc        1 MOL      0.039116
    159 N14        -4.4770    1.5760    0.0830 n         1 MOL     -0.023723
    160 C53        -3.6340    2.0790   -1.0830 c3        1 MOL     -0.008568
    161 C54        -4.3340    1.8210   -2.4470 c         1 MOL      0.374302
    162 O24        -4.3200    2.5780   -3.4090 o         1 MOL     -0.541818
    163 C55        -2.1950    1.5120   -1.0760 c3        1 MOL      0.065561
    164 C56        -1.4880    1.6570    0.2670 c3        1 MOL     -0.182597
    165 C57        -0.0940    0.9190    0.4500 c         1 MOL      0.587434
    166 O25         0.9520    1.6090    0.3420 o         1 MOL     -0.648020
    167 O26        -0.0880   -0.2780    0.8350 o         1 MOL     -0.648020
    168 H71        -4.6180    0.5810    0.0680 hn        1 MOL     -0.003634
    169 H72        -3.4830    3.1590   -1.0520 h1        1 MOL      0.065603
    170 H73        -1.5750    2.0070   -1.8160 hc        1 MOL      0.036063
    171 H74        -2.1700    0.4530   -1.3350 hc        1 MOL      0.036063
    172 H75        -2.1510    1.2780    1.0500 hc        1 MOL      0.077114
    173 H76        -1.3480    2.6710    0.6310 hc        1 MOL      0.077114
    174 N15        -4.7800    0.5870   -2.6810 n         1 MOL      0.088816
    175 C58        -5.4550    0.1680   -3.9710 c3        1 MOL     -0.343174
    176 H77        -6.4550    0.6000   -4.0150 h1        1 MOL      0.110933
    177 H78        -4.8700    0.5230   -4.8200 h1        1 MOL      0.110933
    178 H79        -5.5270   -0.9190   -4.0090 h1        1 MOL      0.110933
    179 H80        -4.5530   -0.2080   -2.0950 hn        1 MOL     -0.051010
    180 Ca1         2.6450   -0.2820    1.2310 Ca        1 MOL      1.665429
    181 O27         1.5540   -0.2520    3.6170 oh        1 MOL     -0.812638
    182 H81         1.5570   -0.8000    4.4030 ho        1 MOL      0.406313
    183 H82         1.6130    0.6430    3.9350 ho        1 MOL      0.406313
@<TRIPOS>BOND
     1    1    2 1   
     2    1    4 1   
     3    1    5 1   
     4    1    6 1   
     5    2    3 2   
     6    2    7 1   
     7    7    8 1   
     8    7   15 1   
     9    8    9 1   
    10    8   11 1   
    11    8   16 1   
    12    9   10 2   
    13    9   19 1   
    14   11   12 1   
    15   11   17 1   
    16   11   18 1   
    17   12   13 1   
    18   12   14 1   
    19   19   20 1   
    20   19   27 1   
    21   20   21 1   
    22   20   23 1   
    23   20   28 1   
    24   21   22 2   
    25   21   38 1   
    26   23   24 1   
    27   23   25 1   
    28   23   29 1   
    29   24   26 1   
    30   24   30 1   
    31   24   31 1   
    32   25   32 1   
    33   25   33 1   
    34   25   34 1   
    35   26   35 1   
    36   26   36 1   
    37   26   37 1   
    38   38   39 1   
    39   38   46 1   
    40   39   40 1   
    41   39   42 1   
    42   39   47 1   
    43   40   41 2   
    44   40   50 1   
    45   42   43 1   
    46   42   48 1   
    47   42   49 1   
    48   43   44 1   
    49   43   45 1   
    50   50   51 1   
    51   50   54 1   
    52   51   52 1   
    53   51   55 1   
    54   51   56 1   
    55   52   53 2   
    56   52   57 1   
    57   57   58 1   
    58   57   65 1   
    59   58   59 1   
    60   58   61 1   
    61   58   66 1   
    62   59   60 2   
    63   59   69 1   
    64   61   62 1   
    65   61   67 1   
    66   61   68 1   
    67   62   63 1   
    68   62   64 1   
    69   69   70 1   
    70   69   73 1   
    71   70   71 1   
    72   70   74 1   
    73   70   75 1   
    74   71   72 2   
    75   71   76 1   
    76   76   77 1   
    77   76   85 1   
    78   77   78 1   
    79   77   80 1   
    80   77   86 1   
    81   78   79 2   
    82   78   93 1   
    83   80   81 1   
    84   80   87 1   
    85   80   88 1   
    86   81   82 1   
    87   81   89 1   
    88   81   90 1   
    89   82   83 1   
    90   82   84 2   
    91   83   91 1   
    92   83   92 1   
    93   93   94 1   
    94   93  100 1   
    95   94   95 1   
    96   94   97 1   
    97   94  101 1   
    98   95   96 2   
    99   95  109 1   
   100   97   98 1   
   101   97   99 1   
   102   97  102 1   
   103   98  103 1   
   104   98  104 1   
   105   98  105 1   
   106   99  106 1   
   107   99  107 1   
   108   99  108 1   
   109  109  110 1   
   110  109  117 1   
   111  110  111 1   
   112  110  113 1   
   113  110  118 1   
   114  111  112 2   
   115  111  123 1   
   116  113  114 1   
   117  113  119 1   
   118  113  120 1   
   119  114  115 1   
   120  114  116 2   
   121  115  121 1   
   122  115  122 1   
   123  123  124 1   
   124  123  135 1   
   125  124  125 1   
   126  124  127 1   
   127  124  136 1   
   128  125  126 2   
   129  125  144 1   
   130  127  128 1   
   131  127  137 1   
   132  127  138 1   
   133  128  129 ar  
   134  128  130 ar  
   135  129  131 ar  
   136  129  139 1   
   137  130  132 ar  
   138  130  140 1   
   139  131  133 ar  
   140  131  141 1   
   141  132  133 ar  
   142  132  142 1   
   143  133  134 1   
   144  134  143 1   
   145  144  145 1   
   146  144  153 1   
   147  145  146 1   
   148  145  148 1   
   149  145  154 1   
   150  146  147 2   
   151  146  159 1   
   152  148  149 1   
   153  148  155 1   
   154  148  156 1   
   155  149  150 1   
   156  149  157 1   
   157  149  158 1   
   158  150  151 1   
   159  150  152 1   
   160  159  160 1   
   161  159  168 1   
   162  160  161 1   
   163  160  163 1   
   164  160  169 1   
   165  161  162 2   
   166  161  174 1   
   167  163  164 1   
   168  163  170 1   
   169  163  171 1   
   170  164  165 1   
   171  164  172 1   
   172  164  173 1   
   173  165  166 1   
   174  165  167 1   
   175  174  175 1   
   176  174  179 1   
   177  175  176 1   
   178  175  177 1   
   179  175  178 1   
   180  181  182 1   
   181  181  183 1   
@<TRIPOS>SUBSTRUCTURE
     1 MOL         1 TEMP              0 ****  ****    0 ROOT
