@<TRIPOS>MOLECULE
MOL
  189   185     1     0     0
SMALL
resp


@<TRIPOS>ATOM
      1 C1          0.6020   -3.5770    5.7440 c3        1 MOL     -0.252090
      2 C2          1.4540   -3.1210    4.5690 c         1 MOL      0.681071
      3 O1          1.6790   -1.8810    4.4920 o         1 MOL     -0.605663
      4 H1          1.2050   -4.1910    6.4130 hc        1 MOL      0.060050
      5 H2          0.2330   -2.7060    6.2850 hc        1 MOL      0.060050
      6 H3         -0.2420   -4.1610    5.3770 hc        1 MOL      0.060050
      7 N1          1.9070   -4.0520    3.7800 n         1 MOL     -0.426355
      8 C3          2.5150   -3.7330    2.4680 c3        1 MOL      0.053570
      9 C4          2.5530   -4.8790    1.4450 c         1 MOL      0.569202
     10 O2          3.3340   -5.8080    1.5220 o         1 MOL     -0.540143
     11 C5          3.9530   -3.3390    2.7360 c3        1 MOL     -0.517140
     12 C6          4.7490   -2.9240    1.5430 c         1 MOL      0.876399
     13 O3          5.9690   -3.1310    1.4980 o         1 MOL     -0.690887
     14 O4          4.1620   -2.3220    0.6290 o         1 MOL     -0.690887
     15 H4          1.6110   -4.9980    3.9370 hn        1 MOL      0.285507
     16 H5          2.0620   -2.8530    2.0190 h1        1 MOL      0.030753
     17 H6          4.3910   -4.2290    3.1760 hc        1 MOL      0.107905
     18 H7          4.0330   -2.5520    3.4870 hc        1 MOL      0.107905
     19 N2          1.7530   -4.6640    0.4270 n         1 MOL     -0.211448
     20 C7          1.6510   -5.5910   -0.6800 c3        1 MOL     -0.310073
     21 C8          2.3500   -5.2480   -2.0600 c         1 MOL      0.621998
     22 O5          2.3330   -6.1110   -2.9470 o         1 MOL     -0.584604
     23 C9          0.2480   -6.1020   -0.7990 c3        1 MOL      0.393360
     24 C10        -0.5940   -4.9540   -1.2820 c3        1 MOL      0.076818
     25 C11        -0.4410   -6.6580    0.4640 c3        1 MOL     -0.385431
     26 C12        -2.0330   -5.3510   -1.7520 c3        1 MOL     -0.281309
     27 H8          1.2420   -3.7880    0.3600 hn        1 MOL      0.086560
     28 H9          2.1750   -6.4970   -0.3920 h1        1 MOL      0.095010
     29 H10         0.1490   -6.8750   -1.5570 hc        1 MOL     -0.055543
     30 H11         0.0020   -4.5130   -2.0880 hc        1 MOL     -0.011376
     31 H12        -0.6810   -4.2100   -0.4930 hc        1 MOL     -0.011376
     32 H13         0.2740   -7.1790    1.1060 hc        1 MOL      0.071819
     33 H14        -0.8220   -5.8170    1.0480 hc        1 MOL      0.071819
     34 H15        -1.2900   -7.2690    0.1480 hc        1 MOL      0.071819
     35 H16        -2.1530   -6.4300   -1.8850 hc        1 MOL      0.066870
     36 H17        -2.7400   -4.8980   -1.0550 hc        1 MOL      0.066870
     37 H18        -2.3180   -4.9600   -2.7330 hc        1 MOL      0.066870
     38 N3          2.9440   -4.0150   -2.1430 n         1 MOL     -0.320531
     39 C13         3.7250   -3.5800   -3.3550 c3        1 MOL     -0.050125
     40 C14         5.2540   -3.1580   -3.2090 c         1 MOL      0.371232
     41 O6          6.0470   -3.1800   -4.1200 o         1 MOL     -0.538403
     42 C15         2.9510   -2.4680   -4.0510 c3        1 MOL     -0.169703
     43 C16         2.4340   -1.3230   -3.2160 c         1 MOL      0.722305
     44 O7          2.9330   -1.1160   -2.1230 o         1 MOL     -0.715636
     45 O8          1.4890   -0.6020   -3.6470 o         1 MOL     -0.715636
     46 H19         2.7160   -3.2650   -1.5090 hn        1 MOL      0.273520
     47 H20         3.7160   -4.3640   -4.1170 h1        1 MOL      0.109242
     48 H21         2.1530   -2.9320   -4.6300 hc        1 MOL      0.052253
     49 H22         3.6110   -2.0570   -4.8200 hc        1 MOL      0.052253
     50 N4          5.7730   -2.8470   -2.0160 n         1 MOL     -0.040723
     51 C17         7.1180   -2.6050   -1.6900 c3        1 MOL     -0.108151
     52 C18         7.5680   -1.0940   -1.7990 c         1 MOL      0.538097
     53 O9          8.7170   -0.8340   -2.0790 o         1 MOL     -0.610283
     54 H23         5.0330   -2.6840   -1.3400 hn        1 MOL      0.009189
     55 H24         7.8300   -3.1180   -2.3480 h1        1 MOL      0.067086
     56 H25         7.2030   -2.8430   -0.6310 h1        1 MOL      0.067086
     57 N5          6.7040   -0.1030   -1.7120 n         1 MOL     -0.259862
     58 C19         7.0250    1.3040   -2.1030 c3        1 MOL      0.098171
     59 C20         7.5100    2.2130   -0.9470 c         1 MOL      0.419282
     60 O10         8.2970    3.1020   -1.0990 o         1 MOL     -0.521224
     61 C21         5.8170    2.0410   -2.7670 c3        1 MOL     -0.551290
     62 C22         4.4800    1.7960   -2.0860 c         1 MOL      0.924324
     63 O11         4.3320    1.4160   -0.8990 o         1 MOL     -0.696998
     64 O12         3.4930    2.1210   -2.7460 o         1 MOL     -0.696998
     65 H26         5.8220   -0.3470   -1.2880 hn        1 MOL      0.210632
     66 H27         7.8840    1.2340   -2.7700 h1        1 MOL      0.097569
     67 H28         5.6900    1.6120   -3.7620 hc        1 MOL      0.145136
     68 H29         5.9890    3.1180   -2.7240 hc        1 MOL      0.145136
     69 N6          7.0150    1.9470    0.2920 n         1 MOL     -0.317530
     70 C23         7.1430    2.9880    1.3130 c3        1 MOL     -0.087753
     71 C24         5.9350    3.9310    1.4050 c         1 MOL      0.461104
     72 O13         6.0030    4.9800    2.0550 o         1 MOL     -0.609188
     73 H30         6.3320    1.2190    0.4730 hn        1 MOL      0.204994
     74 H31         7.9460    3.7100    1.1390 h1        1 MOL      0.087726
     75 H32         7.3490    2.5040    2.2630 h1        1 MOL      0.087726
     76 N7          4.7580    3.6270    0.8100 n         1 MOL     -0.083251
     77 C25         3.4290    4.3390    0.9640 c3        1 MOL     -0.053684
     78 C26         2.3070    3.3590    1.3430 c         1 MOL      0.397631
     79 O14         2.4490    2.1840    1.0540 o         1 MOL     -0.361836
     80 C27         3.0040    5.0190   -0.3660 c3        1 MOL      0.026851
     81 C28         3.7860    6.3150   -0.6640 c3        1 MOL     -0.131289
     82 C29         3.0790    7.2140   -1.6450 c         1 MOL      0.671610
     83 N8          3.1880    7.0000   -2.9500 n         1 MOL     -0.866175
     84 O15         2.4550    8.1260   -1.2550 o         1 MOL     -0.588645
     85 H33         4.7170    2.7430    0.3380 hn        1 MOL      0.094116
     86 H34         3.4500    5.1470    1.7000 h1        1 MOL      0.073198
     87 H35         1.9380    5.2390   -0.2800 hc        1 MOL      0.030360
     88 H36         3.2250    4.3300   -1.1730 hc        1 MOL      0.030360
     89 H37         4.7830    6.0670   -1.0370 hc        1 MOL      0.046780
     90 H38         4.0640    6.9450    0.1820 hc        1 MOL      0.046780
     91 H39         3.3570    6.0610   -3.2850 hn        1 MOL      0.379733
     92 H40         2.8420    7.7990   -3.4690 hn        1 MOL      0.379733
     93 N9          1.1550    3.9160    1.7880 n         1 MOL     -0.541786
     94 C30        -0.0370    3.2210    2.2110 c3        1 MOL     -0.030250
     95 C31        -1.1140    3.6120    1.1880 c         1 MOL      0.673845
     96 O16        -1.2710    4.7550    0.9150 o         1 MOL     -0.593884
     97 C32        -0.2770    3.7750    3.6250 c3        1 MOL      0.329680
     98 C33        -1.6540    3.3530    4.0960 c3        1 MOL     -0.301169
     99 C34         0.7710    3.1510    4.5990 c3        1 MOL     -0.301169
    100 H41         1.0500    4.8910    1.5500 hn        1 MOL      0.288611
    101 H42         0.1580    2.1530    2.1690 h1        1 MOL      0.244144
    102 H43        -0.3130    4.8670    3.6410 hc        1 MOL     -0.032415
    103 H44        -2.4300    3.7520    3.4470 hc        1 MOL      0.053280
    104 H45        -1.7780    2.2750    4.2250 hc        1 MOL      0.053280
    105 H46        -1.7280    3.7870    5.0850 hc        1 MOL      0.053280
    106 H47         0.6330    3.6220    5.5630 hc        1 MOL      0.053280
    107 H48         0.6190    2.0740    4.7050 hc        1 MOL      0.053280
    108 H49         1.7750    3.3370    4.2150 hc        1 MOL      0.053280
    109 N10        -1.8060    2.5810    0.7190 n         1 MOL     -0.477891
    110 C35        -3.0080    2.5800   -0.1620 c3        1 MOL      0.181379
    111 C36        -4.3280    2.3410    0.5990 c         1 MOL      0.289689
    112 O17        -4.2630    1.7590    1.7220 o         1 MOL     -0.352908
    113 C37        -2.8350    1.3750   -1.0950 c3        1 MOL     -0.088128
    114 C38        -3.8860    1.3250   -2.1570 c         1 MOL      0.585807
    115 N11        -4.1440    2.4560   -2.7750 n         1 MOL     -0.696338
    116 O18        -4.3640    0.2550   -2.4650 o         1 MOL     -0.506328
    117 H50        -1.5130    1.6860    1.0690 hn        1 MOL      0.180232
    118 H51        -3.2010    3.5120   -0.6840 h1        1 MOL      0.032926
    119 H52        -2.9610    0.4730   -0.4960 hc        1 MOL      0.086392
    120 H53        -1.8990    1.5480   -1.6230 hc        1 MOL      0.086392
    121 H54        -3.6100    3.3130   -2.7070 hn        1 MOL      0.312040
    122 H55        -4.9390    2.3820   -3.3940 hn        1 MOL      0.312040
    123 N12        -5.5360    2.7950    0.1270 n         1 MOL     -0.272076
    124 C39        -6.8450    2.4820    0.7220 c3        1 MOL      0.086177
    125 C40        -7.1120    0.9840    0.8950 c         1 MOL      0.424835
    126 O19        -7.6480    0.6470    1.9390 o         1 MOL     -0.554093
    127 C41        -7.9290    3.0420   -0.2990 c3        1 MOL     -0.180906
    128 C42        -8.0290    2.4770   -1.6910 ca        1 MOL      0.343601
    129 C43        -7.4060    3.1490   -2.7680 ca        1 MOL     -0.402586
    130 C44        -8.8270    1.3960   -1.9880 ca        1 MOL     -0.402586
    131 C45        -7.4740    2.5760   -4.0910 ca        1 MOL     -0.107791
    132 C46        -9.0000    0.9350   -3.3290 ca        1 MOL     -0.107791
    133 C47        -8.3530    1.5440   -4.4440 ca        1 MOL      0.209977
    134 O20        -8.4400    0.9980   -5.6710 oh        1 MOL     -0.505998
    135 H56        -5.5370    3.4000   -0.6720 hn        1 MOL      0.167095
    136 H57        -6.9330    2.9430    1.7040 h1        1 MOL      0.066107
    137 H58        -7.8270    4.1320   -0.3580 hc        1 MOL      0.042963
    138 H59        -8.8980    2.9160    0.1850 hc        1 MOL      0.042963
    139 H60        -6.7400    3.9780   -2.5970 ha        1 MOL      0.190294
    140 H61        -9.3900    0.9430   -1.1790 ha        1 MOL      0.190294
    141 H62        -7.0180    3.0810   -4.9380 ha        1 MOL      0.111988
    142 H63        -9.4580   -0.0240   -3.5250 ha        1 MOL      0.111988
    143 H64        -8.9560    0.1880   -5.5930 ho        1 MOL      0.419484
    144 N13        -6.5670    0.0690    0.0430 n         1 MOL      0.048285
    145 C48        -6.5850   -1.4130    0.2520 c3        1 MOL     -0.479986
    146 C49        -5.4570   -1.8160    1.2680 c         1 MOL      0.487863
    147 O21        -5.6130   -2.9680    1.7700 o         1 MOL     -0.526156
    148 C50        -6.1320   -2.0840   -1.0270 c3        1 MOL      0.417825
    149 C51        -7.2100   -2.0620   -2.0570 c3        1 MOL     -0.435199
    150 C52        -8.4630   -2.9630   -1.7980 c         1 MOL      0.800718
    151 O22        -9.0650   -2.8260   -0.6800 o         1 MOL     -0.752445
    152 O23        -8.9450   -3.6930   -2.6820 o         1 MOL     -0.752445
    153 H65        -6.0780    0.4580   -0.7510 hn        1 MOL      0.098573
    154 H66        -7.5090   -1.7680    0.6930 h1        1 MOL      0.240760
    155 H67        -5.7240   -3.0930   -0.9050 hc        1 MOL     -0.057998
    156 H68        -5.2620   -1.5880   -1.4690 hc        1 MOL     -0.057998
    157 H69        -6.7430   -2.2690   -3.0200 hc        1 MOL      0.074974
    158 H70        -7.5460   -1.0280   -2.0770 hc        1 MOL      0.074974
    159 N14        -4.4080   -1.0340    1.6190 n         1 MOL     -0.188927
    160 C53        -3.4580   -1.3420    2.7640 c3        1 MOL     -0.125157
    161 C54        -4.0760   -0.8820    4.0630 c         1 MOL      0.472446
    162 O24        -4.1090   -1.6330    5.0190 o         1 MOL     -0.559868
    163 C55        -2.1220   -0.7670    2.4860 c3        1 MOL     -0.035480
    164 C56        -1.4750   -1.6580    1.3610 c3        1 MOL     -0.037788
    165 C57        -0.1810   -1.0920    0.7720 c         1 MOL      0.789704
    166 O25         0.6300   -1.9110    0.2750 o         1 MOL     -0.734232
    167 O26         0.0980    0.0780    0.8700 o         1 MOL     -0.734232
    168 H71        -4.3010   -0.1410    1.1540 hn        1 MOL      0.082715
    169 H72        -3.3410   -2.4190    2.8880 h1        1 MOL      0.102622
    170 H73        -1.5290   -0.9280    3.3830 hc        1 MOL      0.029537
    171 H74        -1.9730    0.2910    2.2910 hc        1 MOL      0.029537
    172 H75        -2.2460   -1.7270    0.5990 hc        1 MOL      0.027027
    173 H76        -1.3030   -2.6400    1.7900 hc        1 MOL      0.027027
    174 N15        -4.7840    0.2530    4.1060 n         1 MOL     -0.043791
    175 C58        -5.3810    0.7840    5.3320 c3        1 MOL     -0.341690
    176 H77        -5.9540   -0.0010    5.8260 h1        1 MOL      0.108556
    177 H78        -4.5930    1.1320    5.9990 h1        1 MOL      0.108556
    178 H79        -6.0410    1.6150    5.0840 h1        1 MOL      0.108556
    179 H80        -4.7640    0.8660    3.3080 hn        1 MOL      0.117091
    180 Ca1         2.6340   -0.2250    0.2320 Ca        1 MOL      1.749956
    181 O27         2.2280    0.1300    2.8610 oh        1 MOL     -0.946781
    182 O28         1.2500    1.1660   -1.6570 oh        1 MOL     -0.946781
    183 H81         1.8730   -0.4580    3.5380 ho        1 MOL      0.432942
    184 H82         2.0180    1.6880   -1.8830 ho        1 MOL      0.432942
    185 H83         2.9560    0.5730    3.2830 ho        1 MOL      0.432942
    186 H84         1.0830    0.6280   -2.4320 ho        1 MOL      0.432942
    187 O29         5.0600    0.4250    1.8930 oh        1 MOL     -0.946781
    188 H85         5.9620    0.1160    1.9860 ho        1 MOL      0.432942
    189 H86         4.7390    0.4690    2.7910 ho        1 MOL      0.432942
@<TRIPOS>BOND
     1    1    2 1   
     2    1    4 1   
     3    1    5 1   
     4    1    6 1   
     5    2    3 2   
     6    2    7 1   
     7    7    8 1   
     8    7   15 1   
     9    8    9 1   
    10    8   11 1   
    11    8   16 1   
    12    9   10 2   
    13    9   19 1   
    14   11   12 1   
    15   11   17 1   
    16   11   18 1   
    17   12   13 1   
    18   12   14 1   
    19   19   20 1   
    20   19   27 1   
    21   20   21 1   
    22   20   23 1   
    23   20   28 1   
    24   21   22 2   
    25   21   38 1   
    26   23   24 1   
    27   23   25 1   
    28   23   29 1   
    29   24   26 1   
    30   24   30 1   
    31   24   31 1   
    32   25   32 1   
    33   25   33 1   
    34   25   34 1   
    35   26   35 1   
    36   26   36 1   
    37   26   37 1   
    38   38   39 1   
    39   38   46 1   
    40   39   40 1   
    41   39   42 1   
    42   39   47 1   
    43   40   41 2   
    44   40   50 1   
    45   42   43 1   
    46   42   48 1   
    47   42   49 1   
    48   43   44 1   
    49   43   45 1   
    50   50   51 1   
    51   50   54 1   
    52   51   52 1   
    53   51   55 1   
    54   51   56 1   
    55   52   53 2   
    56   52   57 1   
    57   57   58 1   
    58   57   65 1   
    59   58   59 1   
    60   58   61 1   
    61   58   66 1   
    62   59   60 2   
    63   59   69 1   
    64   61   62 1   
    65   61   67 1   
    66   61   68 1   
    67   62   63 1   
    68   62   64 1   
    69   69   70 1   
    70   69   73 1   
    71   70   71 1   
    72   70   74 1   
    73   70   75 1   
    74   71   72 2   
    75   71   76 1   
    76   76   77 1   
    77   76   85 1   
    78   77   78 1   
    79   77   80 1   
    80   77   86 1   
    81   78   79 2   
    82   78   93 1   
    83   80   81 1   
    84   80   87 1   
    85   80   88 1   
    86   81   82 1   
    87   81   89 1   
    88   81   90 1   
    89   82   83 1   
    90   82   84 2   
    91   83   91 1   
    92   83   92 1   
    93   93   94 1   
    94   93  100 1   
    95   94   95 1   
    96   94   97 1   
    97   94  101 1   
    98   95   96 2   
    99   95  109 1   
   100   97   98 1   
   101   97   99 1   
   102   97  102 1   
   103   98  103 1   
   104   98  104 1   
   105   98  105 1   
   106   99  106 1   
   107   99  107 1   
   108   99  108 1   
   109  109  110 1   
   110  109  117 1   
   111  110  111 1   
   112  110  113 1   
   113  110  118 1   
   114  111  112 2   
   115  111  123 1   
   116  113  114 1   
   117  113  119 1   
   118  113  120 1   
   119  114  115 1   
   120  114  116 2   
   121  115  121 1   
   122  115  122 1   
   123  123  124 1   
   124  123  135 1   
   125  124  125 1   
   126  124  127 1   
   127  124  136 1   
   128  125  126 2   
   129  125  144 1   
   130  127  128 1   
   131  127  137 1   
   132  127  138 1   
   133  128  129 ar  
   134  128  130 ar  
   135  129  131 ar  
   136  129  139 1   
   137  130  132 ar  
   138  130  140 1   
   139  131  133 ar  
   140  131  141 1   
   141  132  133 ar  
   142  132  142 1   
   143  133  134 1   
   144  134  143 1   
   145  144  145 1   
   146  144  153 1   
   147  145  146 1   
   148  145  148 1   
   149  145  154 1   
   150  146  147 2   
   151  146  159 1   
   152  148  149 1   
   153  148  155 1   
   154  148  156 1   
   155  149  150 1   
   156  149  157 1   
   157  149  158 1   
   158  150  151 1   
   159  150  152 1   
   160  159  160 1   
   161  159  168 1   
   162  160  161 1   
   163  160  163 1   
   164  160  169 1   
   165  161  162 2   
   166  161  174 1   
   167  163  164 1   
   168  163  170 1   
   169  163  171 1   
   170  164  165 1   
   171  164  172 1   
   172  164  173 1   
   173  165  166 1   
   174  165  167 1   
   175  174  175 1   
   176  174  179 1   
   177  175  176 1   
   178  175  177 1   
   179  175  178 1   
   180  181  183 1   
   181  181  185 1   
   182  182  184 1   
   183  182  186 1   
   184  187  188 1   
   185  187  189 1   
@<TRIPOS>SUBSTRUCTURE
     1 MOL         1 TEMP              0 ****  ****    0 ROOT
