@<TRIPOS>MOLECULE
MOL
  186   183     1     0     0
SMALL
resp


@<TRIPOS>ATOM
      1 C1         -0.5350   -3.7070   -5.4590 c3        1 MOL     -0.246070
      2 C2         -1.0470   -3.3300   -4.0150 c         1 MOL      0.707434
      3 O1         -0.4280   -3.8400   -3.0710 o         1 MOL     -0.558502
      4 H1          0.5540   -3.7520   -5.4570 hc        1 MOL      0.054239
      5 H2         -0.9380   -4.6780   -5.7470 hc        1 MOL      0.054239
      6 H3         -0.8650   -2.9500   -6.1720 hc        1 MOL      0.054239
      7 N1         -2.1860   -2.6630   -3.8870 n         1 MOL     -0.618996
      8 C3         -2.7470   -2.2180   -2.5790 c3        1 MOL      0.108378
      9 C4         -3.3800   -3.4070   -1.9110 c         1 MOL      0.716817
     10 O2         -4.1210   -4.1860   -2.5480 o         1 MOL     -0.626388
     11 C5         -3.8350   -1.0480   -2.6570 c3        1 MOL     -0.454946
     12 C6         -4.5350   -0.6030   -1.4240 c         1 MOL      0.880892
     13 O3         -4.1170   -0.9910   -0.3080 o         1 MOL     -0.672574
     14 O4         -5.5620    0.1370   -1.4990 o         1 MOL     -0.672574
     15 H4         -2.5750   -2.2670   -4.7300 hn        1 MOL      0.333087
     16 H5         -1.9000   -1.8650   -1.9990 h1        1 MOL      0.024585
     17 H6         -4.6110   -1.4480   -3.3110 hc        1 MOL      0.115310
     18 H7         -3.2730   -0.2140   -3.0820 hc        1 MOL      0.115310
     19 N2         -3.1530   -3.6330   -0.6150 n         1 MOL     -0.475645
     20 C7         -3.6480   -4.8300    0.1760 c3        1 MOL      0.043163
     21 C8         -4.9220   -4.4330    0.9550 c         1 MOL      0.463457
     22 O5         -5.7910   -5.2960    1.1650 o         1 MOL     -0.571808
     23 C9         -2.5080   -5.4680    0.9850 c3        1 MOL      0.217274
     24 C10        -1.1880   -5.7140    0.1760 c3        1 MOL      0.061294
     25 C11        -3.0760   -6.8660    1.3910 c3        1 MOL     -0.317194
     26 C12        -1.3110   -6.5280   -1.0900 c3        1 MOL     -0.212801
     27 H8         -2.6070   -2.9280   -0.1430 hn        1 MOL      0.304207
     28 H9         -4.0190   -5.5260   -0.5740 h1        1 MOL      0.071812
     29 H10        -2.2090   -4.8930    1.8550 hc        1 MOL     -0.009802
     30 H11        -0.4610   -6.1890    0.8230 hc        1 MOL     -0.020721
     31 H12        -0.7590   -4.7250    0.0000 hc        1 MOL     -0.020721
     32 H13        -3.6720   -6.7230    2.2930 hc        1 MOL      0.057107
     33 H14        -3.7100   -7.2590    0.6060 hc        1 MOL      0.057107
     34 H15        -2.3130   -7.6460    1.5310 hc        1 MOL      0.057107
     35 H16        -1.9370   -5.9530   -1.7700 hc        1 MOL      0.047859
     36 H17        -0.3350   -6.6300   -1.5660 hc        1 MOL      0.047859
     37 H18        -1.7450   -7.5260   -1.0770 hc        1 MOL      0.047859
     38 N3         -5.0790   -3.1660    1.3730 n         1 MOL     -0.081986
     39 C13        -6.2120   -2.7610    2.3040 c3        1 MOL     -0.417292
     40 C14        -7.4990   -2.4180    1.5710 c         1 MOL      0.680523
     41 O6         -8.5800   -2.7370    2.0170 o         1 MOL     -0.561091
     42 C15        -5.7690   -1.5560    3.2040 c3        1 MOL      0.002377
     43 C16        -4.2900   -1.5860    3.6170 c         1 MOL      0.738810
     44 O7         -3.4540   -1.2060    2.7930 o         1 MOL     -0.708168
     45 O8         -4.0180   -1.8300    4.7880 o         1 MOL     -0.708168
     46 H19        -4.4990   -2.4510    0.9680 hn        1 MOL      0.023476
     47 H20        -6.3280   -3.5660    3.0320 h1        1 MOL      0.169991
     48 H21        -6.3860   -1.4040    4.0910 hc        1 MOL      0.020035
     49 H22        -5.9760   -0.6380    2.6470 hc        1 MOL      0.020035
     50 N4         -7.3050   -1.7820    0.4210 n         1 MOL     -0.375049
     51 C17        -8.2370   -0.8710   -0.2540 c3        1 MOL     -0.056202
     52 C18        -8.4100    0.3780    0.5590 c         1 MOL      0.512457
     53 O9         -9.5300    0.8520    0.7060 o         1 MOL     -0.565859
     54 H23        -6.3450   -1.5160    0.2410 hn        1 MOL      0.236496
     55 H24        -9.2130   -1.3530   -0.2150 h1        1 MOL      0.067748
     56 H25        -8.0460   -0.6160   -1.2990 h1        1 MOL      0.067748
     57 N5         -7.2510    0.9290    0.9950 n         1 MOL     -0.218007
     58 C19        -7.2770    2.3910    1.3410 c3        1 MOL     -0.037404
     59 C20        -7.2150    3.3510    0.1230 c         1 MOL      0.389484
     60 O10        -7.6920    4.5050    0.2320 o         1 MOL     -0.536873
     61 C21        -6.1970    2.6660    2.3690 c3        1 MOL     -0.209911
     62 C22        -4.7020    2.3120    2.0750 c         1 MOL      0.608979
     63 O11        -4.3160    2.0190    0.9060 o         1 MOL     -0.722484
     64 O12        -3.8870    2.0640    3.0870 o         1 MOL     -0.722484
     65 H26        -6.4640    0.4630    0.5760 hn        1 MOL      0.060529
     66 H27        -8.1990    2.6180    1.8880 h1        1 MOL      0.102116
     67 H28        -6.4050    2.1510    3.3010 hc        1 MOL      0.080518
     68 H29        -6.2220    3.7340    2.5650 hc        1 MOL      0.080518
     69 N6         -6.5850    2.8220   -0.9820 n         1 MOL     -0.051338
     70 C23        -6.4280    3.5140   -2.2550 c3        1 MOL     -0.354574
     71 C24        -5.0100    3.9950   -2.5170 c         1 MOL      0.734907
     72 O13        -4.6570    4.2990   -3.6700 o         1 MOL     -0.616330
     73 H30        -6.3960    1.8330   -1.0300 hn        1 MOL      0.202574
     74 H31        -7.0450    4.4120   -2.2760 h1        1 MOL      0.125114
     75 H32        -6.7130    2.7670   -3.0000 h1        1 MOL      0.125114
     76 N7         -4.1300    3.9250   -1.4680 n         1 MOL     -0.673356
     77 C25        -2.7430    4.4340   -1.5550 c3        1 MOL      0.257111
     78 C26        -1.8030    3.1380   -1.5470 c         1 MOL      0.739226
     79 O14        -2.1480    2.0970   -0.9540 o         1 MOL     -0.667553
     80 C27        -2.6430    5.4470   -0.4000 c3        1 MOL     -0.017961
     81 C28        -1.1830    5.9380   -0.1630 c3        1 MOL     -0.113430
     82 C29        -1.2370    7.0270    0.8540 c         1 MOL      0.645600
     83 N8         -1.4010    6.7720    2.0780 n         1 MOL     -0.736028
     84 O15        -0.9820    8.2050    0.5420 o         1 MOL     -0.610374
     85 H33        -4.3660    3.2930   -0.7180 hn        1 MOL      0.369606
     86 H34        -2.5270    4.9220   -2.5010 h1        1 MOL      0.006006
     87 H35        -2.8850    4.9810    0.5440 hc        1 MOL      0.020034
     88 H36        -3.1730    6.3820   -0.5980 hc        1 MOL      0.020034
     89 H37        -0.7460    6.3960   -1.0510 hc        1 MOL      0.010167
     90 H38        -0.5320    5.1070    0.1170 hc        1 MOL      0.010167
     91 H39        -1.6560    5.8570    2.4250 hn        1 MOL      0.350862
     92 H40        -1.4220    7.5780    2.6950 hn        1 MOL      0.350862
     93 N9         -0.6220    3.2060   -2.1610 n         1 MOL     -0.634199
     94 C30         0.3570    2.0660   -2.2600 c3        1 MOL     -0.036109
     95 C31         1.6590    2.5230   -1.6160 c         1 MOL      0.468604
     96 O16         2.3690    3.4180   -2.1500 o         1 MOL     -0.579206
     97 C32         0.5280    1.5340   -3.7120 c3        1 MOL      0.273865
     98 C33         1.5970    0.4910   -3.9440 c3        1 MOL     -0.326476
     99 C34        -0.7600    0.8020   -4.0190 c3        1 MOL     -0.326476
    100 H41        -0.3550    4.0650   -2.6210 hn        1 MOL      0.328193
    101 H42         0.0340    1.2790   -1.5900 h1        1 MOL      0.143860
    102 H43         0.6430    2.3680   -4.3960 hc        1 MOL      0.006781
    103 H44         2.5390    0.9780   -3.7020 hc        1 MOL      0.066887
    104 H45         1.5400   -0.3070   -3.2050 hc        1 MOL      0.066887
    105 H46         1.5080    0.0580   -4.9380 hc        1 MOL      0.066887
    106 H47        -0.9410   -0.0790   -3.3970 hc        1 MOL      0.066887
    107 H48        -1.6400    1.4490   -3.9430 hc        1 MOL      0.066887
    108 H49        -0.6820    0.4140   -5.0280 hc        1 MOL      0.066887
    109 N10         1.9960    2.0630   -0.4160 n         1 MOL     -0.044856
    110 C35         3.2100    2.2780    0.3150 c3        1 MOL     -0.031501
    111 C36         4.4520    1.6600   -0.3790 c         1 MOL      0.174188
    112 O17         4.2970    0.7070   -1.1680 o         1 MOL     -0.200383
    113 C37         2.9940    1.7240    1.7350 c3        1 MOL     -0.205821
    114 C38         4.1930    1.9280    2.6850 c         1 MOL      0.627763
    115 N11         4.3810    3.1320    3.1480 n         1 MOL     -0.756992
    116 O18         4.9300    1.0240    2.9060 o         1 MOL     -0.483441
    117 H50         1.2660    1.5430    0.0520 hn        1 MOL      0.079638
    118 H51         3.3310    3.3480    0.4870 h1        1 MOL      0.037624
    119 H52         2.8440    0.6400    1.8520 hc        1 MOL      0.086483
    120 H53         2.1630    2.2740    2.1740 hc        1 MOL      0.086483
    121 H54         3.7300    3.8900    2.9660 hn        1 MOL      0.352083
    122 H55         5.2440    3.3280    3.6410 hn        1 MOL      0.352083
    123 N12         5.6170    2.2210   -0.0480 n         1 MOL     -0.257751
    124 C39         6.9310    1.7170   -0.5860 c3        1 MOL      0.170151
    125 C40         7.0190    0.1690   -0.3750 c         1 MOL      0.600057
    126 O19         7.5060   -0.5150   -1.2680 o         1 MOL     -0.551068
    127 C41         8.0670    2.5620    0.0890 c3        1 MOL     -0.202133
    128 C42         9.4690    1.9860   -0.1390 ca        1 MOL      0.069470
    129 C43         9.9850    1.9030   -1.4210 ca        1 MOL     -0.248005
    130 C44        10.1100    1.3940    0.9320 ca        1 MOL     -0.248005
    131 C45        11.1830    1.2150   -1.7080 ca        1 MOL     -0.152272
    132 C46        11.2990    0.7180    0.7160 ca        1 MOL     -0.152272
    133 C47        11.8720    0.6350   -0.6200 ca        1 MOL      0.242063
    134 O20        13.0280    0.0310   -0.9290 oh        1 MOL     -0.471542
    135 H56         5.7300    2.9740    0.6200 hn        1 MOL      0.192873
    136 H57         6.8480    1.9590   -1.6510 h1        1 MOL      0.016997
    137 H58         7.8470    2.6070    1.1520 hc        1 MOL      0.073450
    138 H59         7.9190    3.5400   -0.3640 hc        1 MOL      0.073450
    139 H60         9.4220    2.2530   -2.2780 ha        1 MOL      0.162196
    140 H61         9.7870    1.4910    1.9530 ha        1 MOL      0.162196
    141 H62        11.7180    1.1140   -2.6430 ha        1 MOL      0.122907
    142 H63        11.7800    0.2520    1.5570 ha        1 MOL      0.122907
    143 H64        13.4040   -0.3390   -0.1290 ho        1 MOL      0.362289
    144 N13         6.5330   -0.3830    0.7840 n         1 MOL     -0.205361
    145 C48         6.6780   -1.7920    1.1210 c3        1 MOL     -0.013725
    146 C49         5.7180   -2.5840    0.1560 c         1 MOL      0.399583
    147 O21         6.1560   -3.5140   -0.4750 o         1 MOL     -0.484750
    148 C50         6.4180   -2.1020    2.5640 c3        1 MOL      0.063176
    149 C51         7.5390   -1.5090    3.4740 c3        1 MOL     -0.311516
    150 C52         7.1710   -1.8550    4.9570 c         1 MOL      0.742762
    151 O22         6.9100   -0.9510    5.8000 o         1 MOL     -0.742455
    152 O23         7.2930   -3.0290    5.3330 o         1 MOL     -0.742455
    153 H65         6.2020    0.1730    1.5650 hn        1 MOL      0.140867
    154 H66         7.6830   -2.1650    0.9260 h1        1 MOL      0.056548
    155 H67         6.4840   -3.1890    2.7110 hc        1 MOL      0.030067
    156 H68         5.4200   -1.8300    2.8860 hc        1 MOL      0.030067
    157 H69         7.7240   -0.4520    3.2810 hc        1 MOL      0.040304
    158 H70         8.4760   -2.0020    3.2140 hc        1 MOL      0.040304
    159 N14         4.4440   -2.1720    0.0850 n         1 MOL     -0.341981
    160 C53         3.5310   -2.7900   -0.8880 c3        1 MOL     -0.003257
    161 C54         3.9980   -2.7410   -2.3700 c         1 MOL      0.278229
    162 O24         3.8140   -3.7610   -3.1060 o         1 MOL     -0.541654
    163 C55         2.1850   -1.9950   -0.7800 c3        1 MOL      0.040167
    164 C56         1.4500   -2.0860    0.5680 c3        1 MOL     -0.105490
    165 C57         0.1070   -1.3630    0.6050 c         1 MOL      0.814639
    166 O25        -1.0550   -1.9220    0.6290 o         1 MOL     -0.811420
    167 O26         0.0540   -0.1190    0.5680 o         1 MOL     -0.811420
    168 H71         4.2010   -1.3000    0.5380 hn        1 MOL      0.175544
    169 H72         3.4270   -3.8630   -0.7390 h1        1 MOL      0.125152
    170 H73         1.5590   -2.2830   -1.6190 hc        1 MOL      0.053291
    171 H74         2.4060   -0.9360   -0.9200 hc        1 MOL      0.053291
    172 H75         1.9860   -1.7480    1.4580 hc        1 MOL      0.020684
    173 H76         1.3980   -3.1660    0.7280 hc        1 MOL      0.020684
    174 N15         4.6690   -1.6880   -2.8110 n         1 MOL      0.161995
    175 C58         5.3600   -1.6310   -4.1420 c3        1 MOL     -0.251196
    176 H77         6.4320   -1.7720   -4.0010 h1        1 MOL      0.087942
    177 H78         4.9720   -2.4190   -4.7870 h1        1 MOL      0.087942
    178 H79         5.1800   -0.6610   -4.6040 h1        1 MOL      0.087942
    179 H80         4.6460   -0.8610   -2.2290 hn        1 MOL     -0.079718
    180 Ca1        -2.3990    0.3620    1.0340 Ca        1 MOL      1.779377
    181 O27        -0.6530    0.6060    3.5850 oh        1 MOL     -0.772117
    182 H81         0.1640    0.7900    4.0600 ho        1 MOL      0.387352
    183 H82        -0.8880   -0.2810    3.8550 ho        1 MOL      0.387352
    184 O28        -0.7220    2.3060    1.5780 oh        1 MOL     -0.772117
    185 H83        -0.9270    3.2180    1.8070 ho        1 MOL      0.387352
    186 H84        -0.3460    1.9370    2.3780 ho        1 MOL      0.387352
@<TRIPOS>BOND
     1    1    2 1   
     2    1    4 1   
     3    1    5 1   
     4    1    6 1   
     5    2    3 2   
     6    2    7 1   
     7    7    8 1   
     8    7   15 1   
     9    8    9 1   
    10    8   11 1   
    11    8   16 1   
    12    9   10 2   
    13    9   19 1   
    14   11   12 1   
    15   11   17 1   
    16   11   18 1   
    17   12   13 1   
    18   12   14 1   
    19   19   20 1   
    20   19   27 1   
    21   20   21 1   
    22   20   23 1   
    23   20   28 1   
    24   21   22 2   
    25   21   38 1   
    26   23   24 1   
    27   23   25 1   
    28   23   29 1   
    29   24   26 1   
    30   24   30 1   
    31   24   31 1   
    32   25   32 1   
    33   25   33 1   
    34   25   34 1   
    35   26   35 1   
    36   26   36 1   
    37   26   37 1   
    38   38   39 1   
    39   38   46 1   
    40   39   40 1   
    41   39   42 1   
    42   39   47 1   
    43   40   41 2   
    44   40   50 1   
    45   42   43 1   
    46   42   48 1   
    47   42   49 1   
    48   43   44 1   
    49   43   45 1   
    50   50   51 1   
    51   50   54 1   
    52   51   52 1   
    53   51   55 1   
    54   51   56 1   
    55   52   53 2   
    56   52   57 1   
    57   57   58 1   
    58   57   65 1   
    59   58   59 1   
    60   58   61 1   
    61   58   66 1   
    62   59   60 2   
    63   59   69 1   
    64   61   62 1   
    65   61   67 1   
    66   61   68 1   
    67   62   63 1   
    68   62   64 1   
    69   69   70 1   
    70   69   73 1   
    71   70   71 1   
    72   70   74 1   
    73   70   75 1   
    74   71   72 2   
    75   71   76 1   
    76   76   77 1   
    77   76   85 1   
    78   77   78 1   
    79   77   80 1   
    80   77   86 1   
    81   78   79 2   
    82   78   93 1   
    83   80   81 1   
    84   80   87 1   
    85   80   88 1   
    86   81   82 1   
    87   81   89 1   
    88   81   90 1   
    89   82   83 1   
    90   82   84 2   
    91   83   91 1   
    92   83   92 1   
    93   93   94 1   
    94   93  100 1   
    95   94   95 1   
    96   94   97 1   
    97   94  101 1   
    98   95   96 2   
    99   95  109 1   
   100   97   98 1   
   101   97   99 1   
   102   97  102 1   
   103   98  103 1   
   104   98  104 1   
   105   98  105 1   
   106   99  106 1   
   107   99  107 1   
   108   99  108 1   
   109  109  110 1   
   110  109  117 1   
   111  110  111 1   
   112  110  113 1   
   113  110  118 1   
   114  111  112 2   
   115  111  123 1   
   116  113  114 1   
   117  113  119 1   
   118  113  120 1   
   119  114  115 1   
   120  114  116 2   
   121  115  121 1   
   122  115  122 1   
   123  123  124 1   
   124  123  135 1   
   125  124  125 1   
   126  124  127 1   
   127  124  136 1   
   128  125  126 2   
   129  125  144 1   
   130  127  128 1   
   131  127  137 1   
   132  127  138 1   
   133  128  129 ar  
   134  128  130 ar  
   135  129  131 ar  
   136  129  139 1   
   137  130  132 ar  
   138  130  140 1   
   139  131  133 ar  
   140  131  141 1   
   141  132  133 ar  
   142  132  142 1   
   143  133  134 1   
   144  134  143 1   
   145  144  145 1   
   146  144  153 1   
   147  145  146 1   
   148  145  148 1   
   149  145  154 1   
   150  146  147 2   
   151  146  159 1   
   152  148  149 1   
   153  148  155 1   
   154  148  156 1   
   155  149  150 1   
   156  149  157 1   
   157  149  158 1   
   158  150  151 1   
   159  150  152 1   
   160  159  160 1   
   161  159  168 1   
   162  160  161 1   
   163  160  163 1   
   164  160  169 1   
   165  161  162 2   
   166  161  174 1   
   167  163  164 1   
   168  163  170 1   
   169  163  171 1   
   170  164  165 1   
   171  164  172 1   
   172  164  173 1   
   173  165  166 1   
   174  165  167 1   
   175  174  175 1   
   176  174  179 1   
   177  175  176 1   
   178  175  177 1   
   179  175  178 1   
   180  181  182 1   
   181  181  183 1   
   182  184  185 1   
   183  184  186 1   
@<TRIPOS>SUBSTRUCTURE
     1 MOL         1 TEMP              0 ****  ****    0 ROOT
