@<TRIPOS>MOLECULE
MOL
  176   174     1     0     0
SMALL
resp


@<TRIPOS>ATOM
      1 C1          0.6270    4.4560    5.5570 c3        1 MOL     -0.257942
      2 C2          0.4790    3.7020    4.2210 c         1 MOL      0.694647
      3 O1          1.4620    3.4960    3.5120 o         1 MOL     -0.561069
      4 H1         -0.0600    5.3010    5.5750 hc        1 MOL      0.068501
      5 H2          0.3970    3.7820    6.3820 hc        1 MOL      0.068501
      6 H3          1.6500    4.8180    5.6580 hc        1 MOL      0.068501
      7 N1         -0.6950    3.2530    3.8350 n         1 MOL     -0.546737
      8 C3         -0.9610    2.8260    2.4720 c3        1 MOL      0.158045
      9 C4         -0.6940    4.0300    1.5410 c         1 MOL      0.168048
     10 O2         -1.2190    5.1120    1.8770 o         1 MOL     -0.544870
     11 C5         -2.3650    2.1150    2.3350 c3        1 MOL     -0.116140
     12 C6         -2.4380    1.4370    0.9260 c         1 MOL      0.629132
     13 O3         -2.2780    2.1490   -0.1070 o         1 MOL     -0.717988
     14 O4         -2.9790    0.2800    0.8160 o         1 MOL     -0.717988
     15 H4         -1.5290    3.1990    4.4040 hn        1 MOL      0.311516
     16 H5         -0.1860    2.0980    2.2300 h1        1 MOL      0.009139
     17 H6         -3.1250    2.8870    2.4500 hc        1 MOL      0.065759
     18 H7         -2.5620    1.4210    3.1590 hc        1 MOL      0.065759
     19 N2          0.0420    4.0480    0.4710 n         1 MOL     -0.048673
     20 C7          0.2570    5.2370   -0.3690 c3        1 MOL     -0.033820
     21 C8         -0.7580    5.4180   -1.5200 c         1 MOL      0.549124
     22 O5         -0.5580    6.2950   -2.4130 o         1 MOL     -0.552725
     23 C9          1.6510    5.1340   -1.0310 c3        1 MOL     -0.058838
     24 C10         2.8340    4.8740   -0.1080 c3        1 MOL     -0.023670
     25 C11         3.1280    6.0920    0.8010 c3        1 MOL     -0.303005
     26 C12         2.1800    6.2070    1.9910 c3        1 MOL      0.426906
     27 N3          2.4120    7.5120    2.5980 n4        1 MOL     -0.586978
     28 H8          0.5100    3.1810    0.2390 hn        1 MOL      0.287668
     29 H9          0.1560    6.1450    0.2200 h1        1 MOL      0.064817
     30 H10         1.7650    6.1650   -1.3590 hc        1 MOL      0.038825
     31 H11         1.6600    4.4220   -1.8510 hc        1 MOL      0.038825
     32 H12         3.7010    4.6840   -0.7460 hc        1 MOL      0.089513
     33 H13         2.6870    4.0650    0.6140 hc        1 MOL      0.089513
     34 H14         3.1120    7.0010    0.2010 hc        1 MOL      0.072955
     35 H15         4.1540    5.9520    1.1390 hc        1 MOL      0.072955
     36 H16         2.3340    5.3760    2.6870 hx        1 MOL     -0.007309
     37 H17         1.1280    6.1360    1.7100 hx        1 MOL     -0.007309
     38 H18         3.3850    7.6110    2.8390 hn        1 MOL      0.360329
     39 H19         2.1060    8.3180    2.0690 hn        1 MOL      0.360329
     40 H20         1.8490    7.6500    3.4230 hn        1 MOL      0.360329
     41 N4         -1.8580    4.6430   -1.5120 n         1 MOL     -0.422140
     42 C13        -2.8970    4.6560   -2.5590 c3        1 MOL     -0.027495
     43 C14        -4.2840    4.2580   -1.9940 c         1 MOL      0.559349
     44 O6         -5.2740    4.3250   -2.6440 o         1 MOL     -0.529380
     45 C15        -2.4330    3.8040   -3.7320 c3        1 MOL     -0.140181
     46 C16        -2.1760    2.3610   -3.3470 c         1 MOL      0.825110
     47 O7         -1.0060    1.8530   -3.3770 o         1 MOL     -0.757864
     48 O8         -3.1270    1.5670   -3.3140 o         1 MOL     -0.757864
     49 H21        -1.8870    3.9800   -0.7390 hn        1 MOL      0.153020
     50 H22        -3.1040    5.6880   -2.8440 h1        1 MOL      0.116886
     51 H23        -1.6220    4.2970   -4.2780 hc        1 MOL      0.056571
     52 H24        -3.2680    3.7600   -4.4170 hc        1 MOL      0.056571
     53 N5         -4.3640    3.9440   -0.6820 n         1 MOL     -0.444810
     54 C17        -5.5970    3.7810    0.0920 c3        1 MOL     -0.033718
     55 C18        -6.2380    2.4290   -0.1490 c         1 MOL      0.474628
     56 O9         -7.2810    2.2160    0.4090 o         1 MOL     -0.592940
     57 H25        -3.4640    3.9580   -0.2160 hn        1 MOL      0.342904
     58 H26        -6.3760    4.5550    0.0690 h1        1 MOL      0.082906
     59 H27        -5.2640    3.6730    1.1240 h1        1 MOL      0.082906
     60 N6         -5.6780    1.4800   -0.8680 n         1 MOL      0.005251
     61 C19        -6.3390    0.2610   -1.1900 c3        1 MOL     -0.150161
     62 C20        -6.3610   -0.8020   -0.0390 c         1 MOL      0.284637
     63 O10        -6.9490   -1.8120   -0.1730 o         1 MOL     -0.373078
     64 C21        -5.8870   -0.2600   -2.5860 c3        1 MOL     -0.289829
     65 C22        -4.7610   -1.2430   -2.4440 c         1 MOL      0.554877
     66 N7         -4.8290   -2.3310   -3.1110 n         1 MOL     -0.647735
     67 O11        -3.8620   -1.0700   -1.6760 o         1 MOL     -0.413299
     68 H28        -4.8440    1.7710   -1.3700 hn        1 MOL      0.084951
     69 H29        -7.3870    0.4880   -1.3940 h1        1 MOL      0.153694
     70 H30        -5.6920    0.5340   -3.2970 hc        1 MOL      0.118912
     71 H31        -6.7620   -0.7610   -3.0040 hc        1 MOL      0.118912
     72 H32        -5.5980   -2.3660   -3.7650 hn        1 MOL      0.333527
     73 H33        -4.0090   -2.9160   -3.1030 hn        1 MOL      0.333527
     74 N8         -5.7370   -0.4900    1.1150 n         1 MOL     -0.135330
     75 C23        -5.6390   -1.3300    2.3470 c3        1 MOL     -0.297874
     76 C24        -4.6040   -2.4860    2.3380 c         1 MOL      0.644608
     77 O12        -4.7450   -3.4320    3.0850 o         1 MOL     -0.560511
     78 H34        -5.2040    0.3600    1.0570 hn        1 MOL      0.214073
     79 H35        -6.6180   -1.7070    2.6380 h1        1 MOL      0.131923
     80 H36        -5.3210   -0.6890    3.1730 h1        1 MOL      0.131923
     81 N9         -3.5760   -2.3980    1.4790 n         1 MOL     -0.444339
     82 C25        -2.5270   -3.4360    1.3110 c3        1 MOL      0.165477
     83 C26        -1.2100   -2.8150    0.7900 c         1 MOL      0.216735
     84 O13        -1.2200   -1.9240   -0.0340 o         1 MOL     -0.346383
     85 C27        -3.0240   -4.4230    0.2060 c3        1 MOL      0.181101
     86 C28        -4.2200   -5.2510    0.4600 ca        1 MOL     -0.171347
     87 C29        -5.5190   -4.7140    0.1440 ca        1 MOL     -0.047332
     88 C30        -4.0900   -6.4500    1.0820 ca        1 MOL     -0.047332
     89 C31        -6.6670   -5.5090    0.3620 ca        1 MOL     -0.267881
     90 C32        -5.2100   -7.2810    1.1960 ca        1 MOL     -0.267881
     91 C33        -6.4890   -6.8580    0.9700 ca        1 MOL      0.346493
     92 O14        -7.5690   -7.6480    1.0740 oh        1 MOL     -0.463896
     93 H37        -3.4290   -1.5810    0.8940 hn        1 MOL      0.236565
     94 H38        -2.4130   -3.8940    2.2860 h1        1 MOL      0.041502
     95 H39        -2.2500   -5.1860    0.1850 hc        1 MOL     -0.030942
     96 H40        -3.0290   -4.0040   -0.7950 hc        1 MOL     -0.030942
     97 H41        -5.5200   -3.6980   -0.2260 ha        1 MOL      0.086643
     98 H42        -3.1060   -6.7820    1.3730 ha        1 MOL      0.086643
     99 H43        -7.6340   -5.1300    0.0670 ha        1 MOL      0.124253
    100 H44        -5.0920   -8.2830    1.5700 ha        1 MOL      0.124253
    101 H45        -7.4310   -8.5710    1.3180 ho        1 MOL      0.347881
    102 N10        -0.0750   -3.1240    1.4160 n         1 MOL     -0.238100
    103 C34         1.2400   -2.5910    1.0630 c3        1 MOL     -0.090126
    104 C35         2.2220   -3.6140    0.3850 c         1 MOL      0.586157
    105 O15         2.4050   -4.7010    0.8830 o         1 MOL     -0.567911
    106 C36         2.0210   -1.8860    2.1880 c3        1 MOL     -0.076324
    107 C37         2.2180   -2.7380    3.4050 c3        1 MOL      0.080894
    108 C38         1.2370   -0.6320    2.4790 c3        1 MOL     -0.173721
    109 C39         2.8290   -2.0760    4.6440 c3        1 MOL     -0.246145
    110 H46        -0.1380   -3.8560    2.1030 hn        1 MOL      0.260649
    111 H47         1.1020   -1.8310    0.2880 h1        1 MOL      0.022101
    112 H48         3.0130   -1.6690    1.7920 hc        1 MOL      0.005844
    113 H49         2.9680   -3.4900    3.1640 hc        1 MOL      0.016503
    114 H50         1.3290   -3.3180    3.6590 hc        1 MOL      0.016503
    115 H51         0.2900   -0.8230    2.9780 hc        1 MOL      0.068522
    116 H52         1.7370    0.0140    3.1990 hc        1 MOL      0.068522
    117 H53         1.0800   -0.1290    1.5230 hc        1 MOL      0.068522
    118 H54         2.1460   -1.3050    4.9810 hc        1 MOL      0.061776
    119 H55         3.0590   -2.8850    5.3450 hc        1 MOL      0.061776
    120 H56         3.7410   -1.5070    4.4770 hc        1 MOL      0.061776
    121 N11         2.7200   -3.2050   -0.7370 n         1 MOL     -0.393152
    122 C40         3.8940   -3.7430   -1.4890 c3        1 MOL      0.062887
    123 C41         5.1870   -3.4160   -0.7970 c         1 MOL      0.344391
    124 O16         5.1740   -2.5650    0.0590 o         1 MOL     -0.231840
    125 C42         3.8970   -3.3190   -2.9760 c3        1 MOL     -0.223228
    126 O17         4.2560   -1.9500   -3.0040 oh        1 MOL     -0.347766
    127 H57         2.4270   -2.2840   -1.0310 hn        1 MOL      0.314618
    128 H58         3.8650   -4.8390   -1.4860 h1        1 MOL      0.084809
    129 H59         2.9870   -3.4850   -3.5400 h1        1 MOL      0.112167
    130 H60         4.7810   -3.7570   -3.4400 h1        1 MOL      0.112167
    131 H61         4.4190   -1.7560   -3.9280 ho        1 MOL      0.363771
    132 N12         6.2350   -4.2070   -1.1580 n         1 MOL     -0.403382
    133 C43         7.5510   -4.0380   -0.5060 c3        1 MOL      0.116111
    134 C44         8.1150   -2.6450   -0.6330 c         1 MOL      0.574890
    135 O18         8.6630   -2.0850    0.3000 o         1 MOL     -0.543971
    136 C45         8.4940   -5.1620   -0.9060 c3        1 MOL     -0.305512
    137 H62         6.1890   -4.9440   -1.8460 hn        1 MOL      0.295902
    138 H63         7.4370   -4.0230    0.5850 h1        1 MOL      0.052854
    139 H64         8.6950   -5.1160   -1.9780 hc        1 MOL      0.092862
    140 H65         9.4800   -4.9910   -0.4770 hc        1 MOL      0.092862
    141 H66         8.0780   -6.1480   -0.7070 hc        1 MOL      0.092862
    142 N13         8.0110   -2.0350   -1.8110 n         1 MOL     -0.539192
    143 C46         8.2140   -0.5550   -1.9970 c3        1 MOL      0.360088
    144 C47         7.2370    0.3800   -1.1710 c         1 MOL      0.195592
    145 O19         7.5900    1.3630   -0.5450 o         1 MOL     -0.476850
    146 C48         8.1250   -0.1700   -3.4800 c3        1 MOL     -0.342442
    147 H67         7.4400   -2.5220   -2.4740 hn        1 MOL      0.261365
    148 H68         9.2060   -0.2630   -1.6690 h1        1 MOL      0.055425
    149 H69         7.2640   -0.6850   -3.9120 hc        1 MOL      0.084717
    150 H70         7.9000    0.8820   -3.6300 hc        1 MOL      0.084717
    151 H71         8.9980   -0.6290   -3.9480 hc        1 MOL      0.084717
    152 N14         5.9310    0.0570   -1.0270 n         1 MOL      0.124555
    153 C49         5.0430    0.7660   -0.1080 c3        1 MOL     -0.175530
    154 C50         5.5160    0.7050    1.3630 c         1 MOL      0.452446
    155 O20         5.5470    1.7180    2.0840 o         1 MOL     -0.544856
    156 C51         3.5040    0.4560   -0.2870 c3        1 MOL     -0.191253
    157 C52         2.8950    1.1620   -1.4660 c3        1 MOL      0.012297
    158 C53         1.3770    0.7460   -1.5260 c         1 MOL      0.698672
    159 O21         0.9890   -0.3800   -1.9670 o         1 MOL     -0.718958
    160 O22         0.6150    1.5070   -0.9140 o         1 MOL     -0.718958
    161 H72         5.6460   -0.6580   -1.6880 hn        1 MOL     -0.024647
    162 H73         5.2230    1.7980   -0.4100 h1        1 MOL      0.088242
    163 H74         2.9690    0.8000    0.5990 hc        1 MOL      0.070765
    164 H75         3.3560   -0.6170   -0.4020 hc        1 MOL      0.070765
    165 H76         3.2860    0.7800   -2.4170 hc        1 MOL     -0.022178
    166 H77         2.9380    2.2430   -1.3520 hc        1 MOL     -0.022178
    167 N15         5.9010   -0.4570    1.8650 n         1 MOL     -0.011856
    168 C54         6.5730   -0.6070    3.1740 c3        1 MOL     -0.245074
    169 H78         6.0470   -0.0150    3.9220 h1        1 MOL      0.095860
    170 H79         6.5630   -1.6570    3.4690 h1        1 MOL      0.095860
    171 H80         7.6040   -0.2610    3.0960 h1        1 MOL      0.095860
    172 H81         5.7390   -1.3280    1.3840 hn        1 MOL      0.089233
    173 Ca1        -1.5430    0.0620   -1.6430 Ca        1 MOL      1.667681
    174 O23        -1.6100   -1.8790   -3.2930 oh        1 MOL     -0.996085
    175 H82        -0.9350   -2.5370   -3.3930 ho        1 MOL      0.464187
    176 H83        -2.0870   -1.8930   -4.1220 ho        1 MOL      0.464187
@<TRIPOS>BOND
     1    1    2 1   
     2    1    4 1   
     3    1    5 1   
     4    1    6 1   
     5    2    3 2   
     6    2    7 1   
     7    7    8 1   
     8    7   15 1   
     9    8    9 1   
    10    8   11 1   
    11    8   16 1   
    12    9   10 2   
    13    9   19 1   
    14   11   12 1   
    15   11   17 1   
    16   11   18 1   
    17   12   13 1   
    18   12   14 1   
    19   19   20 1   
    20   19   28 1   
    21   20   21 1   
    22   20   23 1   
    23   20   29 1   
    24   21   22 2   
    25   21   41 1   
    26   23   24 1   
    27   23   30 1   
    28   23   31 1   
    29   24   25 1   
    30   24   32 1   
    31   24   33 1   
    32   25   26 1   
    33   25   34 1   
    34   25   35 1   
    35   26   27 1   
    36   26   36 1   
    37   26   37 1   
    38   27   38 1   
    39   27   39 1   
    40   27   40 1   
    41   41   42 1   
    42   41   49 1   
    43   42   43 1   
    44   42   45 1   
    45   42   50 1   
    46   43   44 2   
    47   43   53 1   
    48   45   46 1   
    49   45   51 1   
    50   45   52 1   
    51   46   47 1   
    52   46   48 1   
    53   53   54 1   
    54   53   57 1   
    55   54   55 1   
    56   54   58 1   
    57   54   59 1   
    58   55   56 2   
    59   55   60 1   
    60   60   61 1   
    61   60   68 1   
    62   61   62 1   
    63   61   64 1   
    64   61   69 1   
    65   62   63 2   
    66   62   74 1   
    67   64   65 1   
    68   64   70 1   
    69   64   71 1   
    70   65   66 1   
    71   65   67 2   
    72   66   72 1   
    73   66   73 1   
    74   74   75 1   
    75   74   78 1   
    76   75   76 1   
    77   75   79 1   
    78   75   80 1   
    79   76   77 2   
    80   76   81 1   
    81   81   82 1   
    82   81   93 1   
    83   82   83 1   
    84   82   85 1   
    85   82   94 1   
    86   83   84 2   
    87   83  102 1   
    88   85   86 1   
    89   85   95 1   
    90   85   96 1   
    91   86   87 ar  
    92   86   88 ar  
    93   87   89 ar  
    94   87   97 1   
    95   88   90 ar  
    96   88   98 1   
    97   89   91 ar  
    98   89   99 1   
    99   90   91 ar  
   100   90  100 1   
   101   91   92 1   
   102   92  101 1   
   103  102  103 1   
   104  102  110 1   
   105  103  104 1   
   106  103  106 1   
   107  103  111 1   
   108  104  105 2   
   109  104  121 1   
   110  106  107 1   
   111  106  108 1   
   112  106  112 1   
   113  107  109 1   
   114  107  113 1   
   115  107  114 1   
   116  108  115 1   
   117  108  116 1   
   118  108  117 1   
   119  109  118 1   
   120  109  119 1   
   121  109  120 1   
   122  121  122 1   
   123  121  127 1   
   124  122  123 1   
   125  122  125 1   
   126  122  128 1   
   127  123  124 2   
   128  123  132 1   
   129  125  126 1   
   130  125  129 1   
   131  125  130 1   
   132  126  131 1   
   133  132  133 1   
   134  132  137 1   
   135  133  134 1   
   136  133  136 1   
   137  133  138 1   
   138  134  135 2   
   139  134  142 1   
   140  136  139 1   
   141  136  140 1   
   142  136  141 1   
   143  142  143 1   
   144  142  147 1   
   145  143  144 1   
   146  143  146 1   
   147  143  148 1   
   148  144  145 2   
   149  144  152 1   
   150  146  149 1   
   151  146  150 1   
   152  146  151 1   
   153  152  153 1   
   154  152  161 1   
   155  153  154 1   
   156  153  156 1   
   157  153  162 1   
   158  154  155 2   
   159  154  167 1   
   160  156  157 1   
   161  156  163 1   
   162  156  164 1   
   163  157  158 1   
   164  157  165 1   
   165  157  166 1   
   166  158  159 1   
   167  158  160 1   
   168  167  168 1   
   169  167  172 1   
   170  168  169 1   
   171  168  170 1   
   172  168  171 1   
   173  174  175 1   
   174  174  176 1   
@<TRIPOS>SUBSTRUCTURE
     1 MOL         1 TEMP              0 ****  ****    0 ROOT
