@<TRIPOS>MOLECULE
MOL
  175   173     1     0     0
SMALL
resp


@<TRIPOS>ATOM
      1 C1          0.6820    5.0520    5.0070 c3        1 MOL     -0.312033
      2 C2          0.2460    4.6150    3.6120 c         1 MOL      0.685405
      3 O1          1.0620    4.6070    2.6660 o         1 MOL     -0.554758
      4 H1          1.2400    4.2460    5.4820 hc        1 MOL      0.073822
      5 H2          1.3150    5.9350    4.9300 hc        1 MOL      0.073822
      6 H3         -0.1980    5.2860    5.6060 hc        1 MOL      0.073822
      7 N1         -1.0070    4.0780    3.5300 n         1 MOL     -0.629023
      8 C3         -1.7600    3.6890    2.3500 c3        1 MOL      0.092009
      9 C4         -1.8370    4.9090    1.4310 c         1 MOL      0.671190
     10 O2         -1.9110    6.0580    1.8980 o         1 MOL     -0.592624
     11 C5         -3.1390    3.1900    2.7750 c3        1 MOL     -0.393796
     12 C6         -3.9240    2.6780    1.6120 c         1 MOL      0.795572
     13 O3         -3.3390    2.2080    0.5880 o         1 MOL     -0.670992
     14 O4         -5.1630    2.5450    1.7840 o         1 MOL     -0.670992
     15 H4         -1.5590    4.1540    4.3610 hn        1 MOL      0.335865
     16 H5         -1.2890    2.9430    1.7170 h1        1 MOL      0.124009
     17 H6         -3.6370    4.0720    3.1840 hc        1 MOL      0.079362
     18 H7         -2.9740    2.4890    3.5910 hc        1 MOL      0.079362
     19 N2         -1.9610    4.5440    0.1720 n         1 MOL     -0.607405
     20 C7         -2.2370    5.5160   -0.8990 c3        1 MOL      0.186246
     21 C8         -3.1950    4.9930   -2.0070 c         1 MOL      0.446755
     22 O5         -3.3710    5.7230   -3.0110 o         1 MOL     -0.563739
     23 C9         -0.8410    5.9660   -1.4180 c3        1 MOL     -0.220263
     24 H8         -1.9650    3.5660   -0.0840 hn        1 MOL      0.428442
     25 H9         -2.7470    6.3590   -0.4480 h1        1 MOL      0.033375
     26 H10        -0.2650    5.1740   -1.9040 hc        1 MOL      0.061726
     27 H11        -0.9630    6.7590   -2.1550 hc        1 MOL      0.061726
     28 H12        -0.2240    6.3350   -0.6010 hc        1 MOL      0.061726
     29 N3         -3.7580    3.8000   -1.8950 n         1 MOL     -0.287453
     30 C10        -4.5990    3.2030   -2.9730 c3        1 MOL     -0.019165
     31 C11        -5.9330    2.4740   -2.5420 c         1 MOL      0.337595
     32 O6         -6.7550    2.1810   -3.4140 o         1 MOL     -0.503106
     33 C12        -3.7200    2.1920   -3.8860 c3        1 MOL     -0.021985
     34 C13        -3.1130    1.1420   -2.9690 c         1 MOL      0.642788
     35 O7         -1.9230    0.8170   -3.1880 o         1 MOL     -0.694891
     36 O8         -3.7770    0.6380   -2.0370 o         1 MOL     -0.694891
     37 H13        -3.4840    3.2190   -1.1120 hn        1 MOL      0.158802
     38 H14        -4.8780    3.9930   -3.6780 h1        1 MOL      0.089247
     39 H15        -2.9630    2.7670   -4.4330 hc        1 MOL      0.022281
     40 H16        -4.3060    1.7470   -4.6900 hc        1 MOL      0.022281
     41 N4         -6.0970    2.2050   -1.2260 n         1 MOL     -0.129144
     42 C14        -7.2460    1.4900   -0.6600 c3        1 MOL     -0.123382
     43 C15        -7.3880    0.0360   -1.1660 c         1 MOL      0.435624
     44 O9         -8.5040   -0.3570   -1.3910 o         1 MOL     -0.568473
     45 H17        -5.4980    2.6320   -0.5350 hn        1 MOL      0.129268
     46 H18        -8.1500    2.0420   -0.9250 h1        1 MOL      0.079443
     47 H19        -7.1570    1.4500    0.4280 h1        1 MOL      0.079443
     48 N5         -6.2860   -0.7140   -1.3410 n         1 MOL     -0.197596
     49 C16        -6.3310   -2.1350   -1.8760 c3        1 MOL      0.075542
     50 C17        -6.4420   -3.2490   -0.8110 c         1 MOL      0.331801
     51 O10        -6.7130   -4.4130   -1.2090 o         1 MOL     -0.500033
     52 C18        -5.1600   -2.4040   -2.8420 c3        1 MOL     -0.298970
     53 C19        -3.7980   -2.4820   -2.1490 c         1 MOL      0.803273
     54 N6         -2.8220   -2.8840   -2.8760 n         1 MOL     -0.687567
     55 O11        -3.6770   -2.1390   -0.9890 o         1 MOL     -0.565405
     56 H20        -5.4160   -0.2150   -1.3510 hn        1 MOL      0.226143
     57 H21        -7.2590   -2.2300   -2.4410 h1        1 MOL      0.097244
     58 H22        -5.0210   -1.6660   -3.6390 hc        1 MOL      0.070155
     59 H23        -5.2940   -3.4340   -3.1620 hc        1 MOL      0.070155
     60 H24        -3.1060   -3.2690   -3.7610 hn        1 MOL      0.319850
     61 H25        -1.8740   -2.6240   -2.6430 hn        1 MOL      0.319850
     62 N7         -6.2900   -2.8930    0.4840 n         1 MOL     -0.176731
     63 C20        -6.4920   -3.8880    1.5350 c3        1 MOL     -0.108313
     64 C21        -5.1360   -4.4220    2.0150 c         1 MOL      0.545404
     65 O12        -5.0540   -5.2700    2.9380 o         1 MOL     -0.600706
     66 H26        -5.9570   -1.9670    0.7010 hn        1 MOL      0.118544
     67 H27        -6.9960   -4.8120    1.2430 h1        1 MOL      0.095728
     68 H28        -7.0280   -3.4580    2.3820 h1        1 MOL      0.095728
     69 N8         -3.9990   -3.8350    1.5940 n         1 MOL     -0.346926
     70 C22        -2.6730   -4.4270    1.7380 c3        1 MOL     -0.071702
     71 C23        -1.5920   -3.2670    1.7340 c         1 MOL      0.458508
     72 O13        -1.7130   -2.2390    1.1400 o         1 MOL     -0.497523
     73 C24        -2.4060   -5.5000    0.6350 c3        1 MOL      0.510294
     74 C25        -2.9000   -6.8070    1.0620 c3        1 MOL     -0.438391
     75 O14        -3.0900   -5.1890   -0.5790 oh        1 MOL     -0.546053
     76 H29        -4.0930   -3.0190    1.0190 hn        1 MOL      0.235042
     77 H30        -2.6880   -4.9200    2.7140 h1        1 MOL      0.093193
     78 H31        -1.3380   -5.5560    0.4220 h1        1 MOL     -0.027642
     79 H32        -2.8350   -4.2750   -0.7340 ho        1 MOL      0.245817
     80 H33        -2.4640   -7.5190    0.3620 hc        1 MOL      0.104922
     81 H34        -2.4730   -7.0350    2.0440 hc        1 MOL      0.104922
     82 H35        -3.9780   -6.9170    1.1310 hc        1 MOL      0.104922
     83 N9         -0.4410   -3.5060    2.3860 n         1 MOL     -0.475808
     84 C26         0.8160   -2.7370    2.3630 c3        1 MOL      0.109257
     85 C27         1.6810   -3.0590    1.1910 c         1 MOL      0.523011
     86 O15         2.2590   -4.1660    1.1190 o         1 MOL     -0.591121
     87 C28         1.5430   -2.7820    3.7600 c3        1 MOL      0.019031
     88 C29         1.0010   -1.6290    4.7690 c3        1 MOL     -0.177837
     89 C30         3.1180   -2.6140    3.7010 c3        1 MOL     -0.229891
     90 C31         1.2830   -0.1260    4.5930 c3        1 MOL     -0.044116
     91 H36        -0.4020   -4.4270    2.7890 hn        1 MOL      0.233636
     92 H37         0.4830   -1.7030    2.2230 h1        1 MOL      0.179020
     93 H38         1.3930   -3.7430    4.2420 hc        1 MOL      0.039728
     94 H39         1.4350   -1.8750    5.7420 hc        1 MOL      0.040294
     95 H40        -0.0620   -1.8470    4.8290 hc        1 MOL      0.040294
     96 H41         3.3990   -1.6790    3.2130 hc        1 MOL      0.058171
     97 H42         3.4580   -2.7300    4.7330 hc        1 MOL      0.058171
     98 H43         3.5070   -3.4830    3.1740 hc        1 MOL      0.058171
     99 H44         2.3550    0.0790    4.6600 hc        1 MOL      0.017125
    100 H45         1.0850    0.3380    3.6260 hc        1 MOL      0.017125
    101 H46         0.6610    0.4600    5.2620 hc        1 MOL      0.017125
    102 N10         1.8190   -2.1390    0.2310 n         1 MOL     -0.238893
    103 C32         2.6770   -2.1710   -0.9720 c3        1 MOL      0.024775
    104 C33         4.0510   -1.6620   -0.7160 c         1 MOL      0.473131
    105 O16         4.2960   -0.7970    0.1450 o         1 MOL     -0.342501
    106 C34         1.8730   -1.4520   -2.1490 c3        1 MOL     -0.197151
    107 C35         0.3860   -1.8020   -2.4310 c         1 MOL      0.672603
    108 O17        -0.5440   -1.3900   -1.6420 o         1 MOL     -0.636632
    109 O18         0.1810   -2.4440   -3.5100 o         1 MOL     -0.636632
    110 H47         1.1660   -1.3790    0.3910 hn        1 MOL      0.034341
    111 H48         2.8280   -3.2120   -1.2580 h1        1 MOL      0.063107
    112 H49         2.5050   -1.5590   -3.0350 hc        1 MOL      0.050920
    113 H50         1.9260   -0.3920   -1.9210 hc        1 MOL      0.050920
    114 N11         5.0510   -2.1720   -1.4540 n         1 MOL     -0.589421
    115 C36         6.5150   -1.7740   -1.3240 c3        1 MOL      0.306312
    116 C37         6.6940   -0.2410   -1.1600 c         1 MOL      0.154307
    117 O19         7.5390    0.1200   -0.3740 o         1 MOL     -0.442219
    118 C38         7.3650   -2.4170   -2.4640 c3        1 MOL     -0.270803
    119 C39         8.8180   -2.1570   -2.0930 ca        1 MOL      0.211402
    120 C40         9.4250   -3.1140   -1.1890 ca        1 MOL     -0.276233
    121 C41         9.5860   -1.1450   -2.6620 ca        1 MOL     -0.276233
    122 C42        10.7630   -2.9130   -0.8210 ca        1 MOL     -0.040086
    123 C43        10.9170   -0.9030   -2.2850 ca        1 MOL     -0.040086
    124 C44        11.5000   -1.8230   -1.3570 ca        1 MOL     -0.153981
    125 H51         4.8410   -2.7580   -2.2580 hn        1 MOL      0.316782
    126 H52         6.8770   -2.2910   -0.4410 h1        1 MOL      0.074838
    127 H53         7.0900   -2.0910   -3.4670 hc        1 MOL      0.083186
    128 H54         7.2980   -3.5050   -2.3980 hc        1 MOL      0.083186
    129 H55         8.8260   -3.9240   -0.8090 ha        1 MOL      0.148706
    130 H56         9.0120   -0.4400   -3.2540 ha        1 MOL      0.148706
    131 H57        11.1790   -3.5850   -0.0780 ha        1 MOL      0.104077
    132 H58        11.5700   -0.1450   -2.6890 ha        1 MOL      0.104077
    133 H59        12.5570   -1.7660   -1.1990 ha        1 MOL      0.096830
    134 N12         6.1180    0.6430   -1.9600 n         1 MOL      0.120560
    135 C45         6.2590    2.0940   -1.7240 c3        1 MOL     -0.103920
    136 C46         5.7040    2.6290   -0.4070 c         1 MOL      0.354997
    137 O20         6.1300    3.6950    0.0130 o         1 MOL     -0.497855
    138 C47         5.4990    2.7920   -2.8420 c3        1 MOL     -0.098938
    139 C48         5.3720    1.7590   -4.0090 c3        1 MOL     -0.067610
    140 C49         5.2810    0.4630   -3.1360 c3        1 MOL     -0.161696
    141 H60         7.2850    2.4540   -1.7440 h1        1 MOL      0.101050
    142 H61         4.4530    3.0650   -2.7010 hc        1 MOL      0.074293
    143 H62         5.8980    3.7580   -3.1380 hc        1 MOL      0.074293
    144 H63         4.5150    1.8280   -4.6930 hc        1 MOL      0.040983
    145 H64         6.2810    1.6660   -4.5880 hc        1 MOL      0.040983
    146 H65         4.2430    0.5240   -2.7920 h1        1 MOL      0.093017
    147 H66         5.5400   -0.3810   -3.7800 h1        1 MOL      0.093017
    148 N13         4.7410    1.9460    0.2010 n         1 MOL     -0.119044
    149 C50         4.1020    2.3870    1.4820 c3        1 MOL     -0.139761
    150 C51         4.9510    1.8680    2.6410 c         1 MOL      0.445660
    151 O21         5.3740    2.6410    3.5780 o         1 MOL     -0.602388
    152 C52         2.6870    1.7930    1.6330 c3        1 MOL      0.052779
    153 C53         1.7790    1.9890    0.4010 c3        1 MOL      0.221554
    154 C54         0.3960    1.4260    0.4700 c         1 MOL      0.557882
    155 O22        -0.5000    2.0320   -0.1210 o         1 MOL     -0.751407
    156 O23         0.0810    0.3960    1.1350 o         1 MOL     -0.751407
    157 H67         4.4740    1.0520   -0.1840 hn        1 MOL      0.096873
    158 H68         3.9980    3.4750    1.5200 h1        1 MOL      0.122012
    159 H69         2.2010    2.1740    2.5250 hc        1 MOL      0.006787
    160 H70         2.7430    0.7200    1.8250 hc        1 MOL      0.006787
    161 H71         2.3490    1.7790   -0.5080 hc        1 MOL     -0.021667
    162 H72         1.6210    3.0660    0.2550 hc        1 MOL     -0.021667
    163 N14         5.3740    0.6870    2.5350 n         1 MOL      0.012899
    164 C55         6.3250   -0.0340    3.4200 c3        1 MOL     -0.216655
    165 H73         5.7700   -0.5780    4.1830 h1        1 MOL      0.086141
    166 H74         6.9120   -0.7370    2.8290 h1        1 MOL      0.086141
    167 H75         6.9920    0.6830    3.8990 h1        1 MOL      0.086141
    168 H76         4.9250    0.2520    1.7410 hn        1 MOL      0.055524
    169 Ca1        -2.1640   -0.0090   -0.1800 Ca        1 MOL      1.734353
    170 O24        -4.7360   -0.2590    1.3860 oh        1 MOL     -0.807789
    171 H77        -4.9650    0.6580    1.5290 ho        1 MOL      0.396444
    172 H78        -5.1260   -0.7240    2.1190 ho        1 MOL      0.396444
    173 O25        -2.1910    0.0870    2.5400 oh        1 MOL     -0.807789
    174 H79        -1.2570    0.2410    2.4670 ho        1 MOL      0.396444
    175 H80        -2.4140    0.3660    3.4290 ho        1 MOL      0.396444
@<TRIPOS>BOND
     1    1    2 1   
     2    1    4 1   
     3    1    5 1   
     4    1    6 1   
     5    2    3 2   
     6    2    7 1   
     7    7    8 1   
     8    7   15 1   
     9    8    9 1   
    10    8   11 1   
    11    8   16 1   
    12    9   10 2   
    13    9   19 1   
    14   11   12 1   
    15   11   17 1   
    16   11   18 1   
    17   12   13 1   
    18   12   14 1   
    19   19   20 1   
    20   19   24 1   
    21   20   21 1   
    22   20   23 1   
    23   20   25 1   
    24   21   22 2   
    25   21   29 1   
    26   23   26 1   
    27   23   27 1   
    28   23   28 1   
    29   29   30 1   
    30   29   37 1   
    31   30   31 1   
    32   30   33 1   
    33   30   38 1   
    34   31   32 2   
    35   31   41 1   
    36   33   34 1   
    37   33   39 1   
    38   33   40 1   
    39   34   35 1   
    40   34   36 1   
    41   41   42 1   
    42   41   45 1   
    43   42   43 1   
    44   42   46 1   
    45   42   47 1   
    46   43   44 2   
    47   43   48 1   
    48   48   49 1   
    49   48   56 1   
    50   49   50 1   
    51   49   52 1   
    52   49   57 1   
    53   50   51 2   
    54   50   62 1   
    55   52   53 1   
    56   52   58 1   
    57   52   59 1   
    58   53   54 1   
    59   53   55 2   
    60   54   60 1   
    61   54   61 1   
    62   62   63 1   
    63   62   66 1   
    64   63   64 1   
    65   63   67 1   
    66   63   68 1   
    67   64   65 2   
    68   64   69 1   
    69   69   70 1   
    70   69   76 1   
    71   70   71 1   
    72   70   73 1   
    73   70   77 1   
    74   71   72 2   
    75   71   83 1   
    76   73   74 1   
    77   73   75 1   
    78   73   78 1   
    79   74   80 1   
    80   74   81 1   
    81   74   82 1   
    82   75   79 1   
    83   83   84 1   
    84   83   91 1   
    85   84   85 1   
    86   84   87 1   
    87   84   92 1   
    88   85   86 2   
    89   85  102 1   
    90   87   88 1   
    91   87   89 1   
    92   87   93 1   
    93   88   90 1   
    94   88   94 1   
    95   88   95 1   
    96   89   96 1   
    97   89   97 1   
    98   89   98 1   
    99   90   99 1   
   100   90  100 1   
   101   90  101 1   
   102  102  103 1   
   103  102  110 1   
   104  103  104 1   
   105  103  106 1   
   106  103  111 1   
   107  104  105 2   
   108  104  114 1   
   109  106  107 1   
   110  106  112 1   
   111  106  113 1   
   112  107  108 1   
   113  107  109 1   
   114  114  115 1   
   115  114  125 1   
   116  115  116 1   
   117  115  118 1   
   118  115  126 1   
   119  116  117 2   
   120  116  134 1   
   121  118  119 1   
   122  118  127 1   
   123  118  128 1   
   124  119  120 ar  
   125  119  121 ar  
   126  120  122 ar  
   127  120  129 1   
   128  121  123 ar  
   129  121  130 1   
   130  122  124 ar  
   131  122  131 1   
   132  123  124 ar  
   133  123  132 1   
   134  124  133 1   
   135  134  135 1   
   136  134  140 1   
   137  135  136 1   
   138  135  138 1   
   139  135  141 1   
   140  136  137 2   
   141  136  148 1   
   142  138  139 1   
   143  138  142 1   
   144  138  143 1   
   145  139  140 1   
   146  139  144 1   
   147  139  145 1   
   148  140  146 1   
   149  140  147 1   
   150  148  149 1   
   151  148  157 1   
   152  149  150 1   
   153  149  152 1   
   154  149  158 1   
   155  150  151 2   
   156  150  163 1   
   157  152  153 1   
   158  152  159 1   
   159  152  160 1   
   160  153  154 1   
   161  153  161 1   
   162  153  162 1   
   163  154  155 1   
   164  154  156 1   
   165  163  164 1   
   166  163  168 1   
   167  164  165 1   
   168  164  166 1   
   169  164  167 1   
   170  170  171 1   
   171  170  172 1   
   172  173  174 1   
   173  173  175 1   
@<TRIPOS>SUBSTRUCTURE
     1 MOL         1 TEMP              0 ****  ****    0 ROOT
