@<TRIPOS>MOLECULE
MOL
  189   185     1     0     0
SMALL
resp


@<TRIPOS>ATOM
      1 C1         -0.4730    0.7490    6.8590 c3        1 MOL     -0.384480
      2 C2         -0.6840    0.7750    5.2870 c         1 MOL      0.789959
      3 O1          0.1520    1.2640    4.6150 o         1 MOL     -0.623583
      4 H1         -1.4430    0.6970    7.3540 hc        1 MOL      0.100725
      5 H2          0.1220   -0.1220    7.1320 hc        1 MOL      0.100725
      6 H3          0.0440    1.6560    7.1720 hc        1 MOL      0.100725
      7 N1         -1.7610    0.2370    4.6760 n         1 MOL     -0.755733
      8 C3         -2.1590    0.5980    3.2970 c3        1 MOL      0.272021
      9 C4         -2.7110    2.0440    3.2490 c         1 MOL      0.598231
     10 O2         -3.7360    2.3590    3.7510 o         1 MOL     -0.543617
     11 C5         -3.1500   -0.3870    2.7190 c3        1 MOL     -0.304319
     12 C6         -3.9590    0.0690    1.5310 c         1 MOL      0.705461
     13 O3         -5.1320   -0.2290    1.3880 o         1 MOL     -0.643936
     14 O4         -3.4170    0.7070    0.6910 o         1 MOL     -0.643936
     15 H4         -2.3430   -0.4030    5.1830 hn        1 MOL      0.354341
     16 H5         -1.2950    0.6710    2.6390 h1        1 MOL     -0.021962
     17 H6         -3.8280   -0.6780    3.5200 hc        1 MOL      0.060787
     18 H7         -2.6320   -1.2810    2.3580 hc        1 MOL      0.060787
     19 N2         -1.9200    2.8760    2.5470 n         1 MOL     -0.404536
     20 C7         -2.2450    4.3300    2.3610 c3        1 MOL     -0.134644
     21 C8         -3.3000    4.6610    1.2830 c         1 MOL      0.353418
     22 O5         -3.8510    5.8040    1.2110 o         1 MOL     -0.540556
     23 C9         -0.9620    5.1880    2.2260 c3        1 MOL      0.089010
     24 C10         0.2080    4.7250    1.3030 c3        1 MOL     -0.157666
     25 C11        -0.1690    5.0240   -0.1430 c3        1 MOL      0.032739
     26 C12         0.8760    4.3390   -0.9520 c3        1 MOL      0.185191
     27 N3          0.7970    4.4840   -2.4040 n4        1 MOL     -0.441160
     28 H8         -1.1150    2.4830    2.0790 hn        1 MOL      0.330940
     29 H9         -2.6570    4.6070    3.3380 h1        1 MOL      0.141724
     30 H10        -0.5620    5.1970    3.2380 hc        1 MOL      0.014884
     31 H11        -1.2250    6.2480    2.1970 hc        1 MOL      0.014884
     32 H12         0.3900    3.6610    1.4430 hc        1 MOL      0.048474
     33 H13         1.0360    5.3400    1.6510 hc        1 MOL      0.048474
     34 H14        -0.1900    6.1030   -0.3010 hc        1 MOL      0.037255
     35 H15        -1.1000    4.5600   -0.4690 hc        1 MOL      0.037255
     36 H16         0.5980    3.2890   -0.8390 hx        1 MOL     -0.006706
     37 H17         1.8850    4.5610   -0.6070 hx        1 MOL     -0.006706
     38 H18         0.7610    5.4630   -2.6740 hn        1 MOL      0.307301
     39 H19         1.5200    3.9410   -2.8300 hn        1 MOL      0.307301
     40 H20        -0.0470    4.0360   -2.7300 hn        1 MOL      0.307301
     41 N4         -3.6090    3.7750    0.3460 n         1 MOL      0.011119
     42 C13        -4.4680    3.9870   -0.8080 c3        1 MOL     -0.094477
     43 C14        -5.9450    3.5570   -0.4930 c         1 MOL      0.493242
     44 O6         -6.8650    4.2260   -0.9170 o         1 MOL     -0.522907
     45 C15        -4.0410    3.4490   -2.1240 c3        1 MOL      0.047538
     46 C16        -2.5370    3.6340   -2.4090 c         1 MOL      0.564018
     47 O7         -2.1370    4.7530   -2.9060 o         1 MOL     -0.658182
     48 O8         -1.6830    2.7690   -2.0080 o         1 MOL     -0.658182
     49 H21        -3.2100    2.8540    0.5060 hn        1 MOL      0.014415
     50 H22        -4.5300    5.0480   -1.0360 h1        1 MOL      0.093992
     51 H23        -4.5230    4.0070   -2.9270 hc        1 MOL      0.004171
     52 H24        -4.2600    2.3870   -2.1470 hc        1 MOL      0.004171
     53 N5         -6.0990    2.4490    0.2620 n         1 MOL     -0.322901
     54 C17        -7.3580    1.7480    0.3320 c3        1 MOL     -0.149598
     55 C18        -7.6700    0.7470   -0.7550 c         1 MOL      0.477175
     56 O9         -8.7960    0.3010   -0.8720 o         1 MOL     -0.558823
     57 H25        -5.2760    2.0440    0.6840 hn        1 MOL      0.269262
     58 H26        -8.2240    2.4140    0.3350 h1        1 MOL      0.115652
     59 H27        -7.4360    1.2900    1.3190 h1        1 MOL      0.115652
     60 N6         -6.6590    0.3880   -1.5380 n         1 MOL     -0.242177
     61 C19        -6.7790   -0.6290   -2.6470 c3        1 MOL      0.003086
     62 C20        -6.9650   -2.0210   -2.0720 c         1 MOL      0.439828
     63 O10        -7.4870   -2.9010   -2.6880 o         1 MOL     -0.535676
     64 C21        -5.5980   -0.5740   -3.6160 c3        1 MOL     -0.359381
     65 C22        -4.2810   -0.4220   -2.9450 c         1 MOL      0.813537
     66 O11        -3.9870   -0.9480   -1.8510 o         1 MOL     -0.764586
     67 O12        -3.4110    0.2900   -3.5630 o         1 MOL     -0.764586
     68 H28        -5.7150    0.6950   -1.3320 hn        1 MOL      0.177452
     69 H29        -7.6810   -0.5010   -3.2500 h1        1 MOL      0.110112
     70 H30        -5.6790    0.3880   -4.1360 hc        1 MOL      0.106889
     71 H31        -5.6180   -1.3950   -4.3350 hc        1 MOL      0.106889
     72 N7         -6.6120   -2.1890   -0.7630 n         1 MOL     -0.143719
     73 C23        -6.6830   -3.4270   -0.0110 c3        1 MOL     -0.183511
     74 C24        -5.3930   -4.1980   -0.0260 c         1 MOL      0.507839
     75 O13        -5.4790   -5.4190    0.3400 o         1 MOL     -0.572705
     76 H32        -6.2940   -1.4020   -0.2150 hn        1 MOL      0.214784
     77 H33        -7.3940   -4.0780   -0.5170 h1        1 MOL      0.106319
     78 H34        -7.0440   -3.1780    0.9920 h1        1 MOL      0.106319
     79 N8         -4.2570   -3.6240   -0.3820 n         1 MOL     -0.193734
     80 C25        -2.9890   -4.3100   -0.3120 c3        1 MOL     -0.174196
     81 C26        -1.8260   -3.4040    0.1960 c         1 MOL      0.635987
     82 O14        -1.7790   -2.2000   -0.0740 o         1 MOL     -0.515183
     83 C27        -2.5880   -4.8540   -1.6880 c3        1 MOL      0.313353
     84 C28        -3.3030   -6.1140   -2.1490 c3        1 MOL     -0.562330
     85 O15        -2.7640   -3.9170   -2.7260 oh        1 MOL     -0.587816
     86 H35        -4.2340   -2.6300   -0.5680 hn        1 MOL      0.179658
     87 H36        -3.0160   -5.1580    0.3730 h1        1 MOL      0.106231
     88 H37        -1.5130   -5.0800   -1.7190 h1        1 MOL      0.057051
     89 H38        -3.6800   -4.0600   -2.9810 ho        1 MOL      0.405624
     90 H39        -4.3900   -6.0280   -2.1720 hc        1 MOL      0.158329
     91 H40        -2.9990   -6.2920   -3.1860 hc        1 MOL      0.158329
     92 H41        -3.0910   -6.8910   -1.4120 hc        1 MOL      0.158329
     93 N9         -0.7410   -3.9930    0.7560 n         1 MOL     -0.586050
     94 C29         0.5480   -3.3970    1.0360 c3        1 MOL      0.080886
     95 C30         1.4780   -3.6590   -0.1220 c         1 MOL      0.471527
     96 O16         1.6130   -4.7410   -0.7500 o         1 MOL     -0.594418
     97 C31         1.1110   -3.9210    2.4230 c3        1 MOL      0.061758
     98 C32         0.2930   -3.1000    3.4820 c3        1 MOL      0.028162
     99 C33         2.6400   -3.8170    2.6790 c3        1 MOL     -0.345940
    100 C34         0.2610   -3.9620    4.7250 c3        1 MOL     -0.209882
    101 H42        -0.8010   -4.9860    0.8820 hn        1 MOL      0.299423
    102 H43         0.4150   -2.3240    1.1660 h1        1 MOL      0.116453
    103 H44         0.7410   -4.9510    2.5060 hc        1 MOL      0.041479
    104 H45        -0.7000   -2.9240    3.0700 hc        1 MOL      0.032839
    105 H46         0.7940   -2.1610    3.7050 hc        1 MOL      0.032839
    106 H47         2.7980   -4.4820    3.5340 hc        1 MOL      0.082015
    107 H48         3.2250   -4.2060    1.8490 hc        1 MOL      0.082015
    108 H49         2.9060   -2.8000    2.9470 hc        1 MOL      0.082015
    109 H50        -0.2000   -4.9370    4.5480 hc        1 MOL      0.050908
    110 H51         1.2790   -4.0980    5.1020 hc        1 MOL      0.050908
    111 H52        -0.2450   -3.5070    5.5700 hc        1 MOL      0.050908
    112 N10         2.2460   -2.6220   -0.4300 n         1 MOL      0.018095
    113 C35         3.3550   -2.6330   -1.4350 c3        1 MOL     -0.020818
    114 C36         4.6640   -2.5340   -0.6010 c         1 MOL      0.291351
    115 O17         4.6230   -2.2480    0.5890 o         1 MOL     -0.340517
    116 C37         3.2750   -1.3670   -2.2970 c3        1 MOL      0.395843
    117 C38         2.3530   -1.4220   -3.5000 c3        1 MOL     -0.455800
    118 O18         3.0340   -0.2280   -1.5360 oh        1 MOL     -0.608769
    119 H53         1.9390   -1.7650    0.0130 hn        1 MOL     -0.058411
    120 H54         3.3780   -3.5110   -2.0830 h1        1 MOL      0.082382
    121 H55         4.2260   -1.3180   -2.8320 h1        1 MOL     -0.016693
    122 H56         2.1230   -0.1660   -1.2520 ho        1 MOL      0.360451
    123 H57         2.4670   -0.4540   -3.9800 hc        1 MOL      0.111319
    124 H58         2.5640   -2.3200   -4.0770 hc        1 MOL      0.111319
    125 H59         1.3420   -1.5950   -3.1180 hc        1 MOL      0.111319
    126 N11         5.8180   -2.6220   -1.2010 n         1 MOL     -0.323314
    127 C39         7.1760   -2.2450   -0.6320 c3        1 MOL      0.035130
    128 C40         7.2540   -0.8750    0.0400 c         1 MOL      0.292212
    129 O19         7.7700   -0.7000    1.1160 o         1 MOL     -0.466827
    130 C41         8.1910   -2.1420   -1.7590 c3        1 MOL      0.139669
    131 C42         8.5670   -3.4900   -2.3710 c3        1 MOL     -0.459979
    132 O20         7.7230   -1.2680   -2.8290 oh        1 MOL     -0.648658
    133 H60         5.7370   -2.9490   -2.1530 hn        1 MOL      0.256732
    134 H61         7.5180   -3.0150    0.0620 h1        1 MOL      0.140023
    135 H62         9.0790   -1.6170   -1.4100 h1        1 MOL      0.092233
    136 H63         8.4490   -1.3040   -3.4550 ho        1 MOL      0.418167
    137 H64         8.6950   -4.2430   -1.5900 hc        1 MOL      0.144304
    138 H65         7.7420   -3.8130   -3.0120 hc        1 MOL      0.144304
    139 H66         9.4190   -3.3830   -3.0370 hc        1 MOL      0.144304
    140 N12         6.7240    0.1570   -0.6390 n         1 MOL     -0.154854
    141 C43         6.6840    1.5510   -0.1690 c3        1 MOL     -0.193069
    142 C44         5.7420    1.7390    1.0330 c         1 MOL      0.468191
    143 O21         5.7430    2.7100    1.7480 o         1 MOL     -0.528108
    144 C45         6.2650    2.4930   -1.3180 c3        1 MOL     -0.261357
    145 C46         7.2010    2.6740   -2.4990 c3        1 MOL      0.100846
    146 C47         8.4480    3.4670   -2.2590 c3        1 MOL      0.091188
    147 C48         9.3520    3.1330   -3.4670 c3        1 MOL      0.026710
    148 N13        10.4260    4.0980   -3.7220 n4        1 MOL     -0.255381
    149 H67         6.4270   -0.0600   -1.5820 hn        1 MOL      0.284846
    150 H68         7.6990    1.7850    0.1500 h1        1 MOL      0.152411
    151 H69         5.9950    3.4910   -0.9640 hc        1 MOL      0.106162
    152 H70         5.3510    2.1050   -1.7670 hc        1 MOL      0.106162
    153 H71         6.6780    3.1970   -3.2960 hc        1 MOL     -0.004876
    154 H72         7.4300    1.7300   -2.9760 hc        1 MOL     -0.004876
    155 H73         8.9430    3.1920   -1.3200 hc        1 MOL      0.009692
    156 H74         8.2440    4.5310   -2.2130 hc        1 MOL      0.009692
    157 H75         8.6860    2.9770   -4.3090 hx        1 MOL      0.054878
    158 H76         9.7810    2.1690   -3.1970 hx        1 MOL      0.054878
    159 H77        11.0500    4.2370   -2.9500 hn        1 MOL      0.289867
    160 H78        10.9830    3.6280   -4.4240 hn        1 MOL      0.289867
    161 H79        10.1540    4.9910   -4.1040 hn        1 MOL      0.289867
    162 N14         4.8540    0.7450    1.2930 n         1 MOL     -0.021305
    163 C49         3.9930    0.6390    2.4550 c3        1 MOL     -0.211065
    164 C50         4.5010   -0.3080    3.5720 c         1 MOL      0.505731
    165 O22         4.2490   -0.1160    4.7280 o         1 MOL     -0.527231
    166 C51         2.5430    0.2960    2.0820 c3        1 MOL      0.202499
    167 C52         1.8940    1.2970    1.1110 c3        1 MOL     -0.495082
    168 C53         0.5630    0.7880    0.4920 c         1 MOL      0.805084
    169 O23         0.5450   -0.2760   -0.1900 o         1 MOL     -0.752580
    170 O24        -0.5050    1.4320    0.6180 o         1 MOL     -0.752580
    171 H80         4.9060    0.0160    0.6010 hn        1 MOL      0.032432
    172 H81         3.9710    1.6080    2.9600 h1        1 MOL      0.136095
    173 H82         1.9440    0.2240    2.9890 hc        1 MOL      0.077705
    174 H83         2.5200   -0.6660    1.5760 hc        1 MOL      0.077705
    175 H84         2.5700    1.6450    0.3420 hc        1 MOL      0.112869
    176 H85         1.7150    2.1570    1.7690 hc        1 MOL      0.112869
    177 N15         5.3430   -1.2790    3.2130 n         1 MOL     -0.194962
    178 C54         5.9540   -2.2150    4.1140 c3        1 MOL     -0.199076
    179 H86         5.9930   -1.7840    5.1140 h1        1 MOL      0.086176
    180 H87         5.3680   -3.1340    4.1370 h1        1 MOL      0.086176
    181 H88         6.9660   -2.4380    3.7770 h1        1 MOL      0.086176
    182 H89         5.5910   -1.3950    2.2420 hn        1 MOL      0.177253
    183 Ca1        -1.7150    0.1820   -1.2820 Ca        1 MOL      1.730153
    184 O25        -1.2780   -1.7290   -3.1820 oh        1 MOL     -0.747121
    185 H90        -1.6160   -2.5290   -2.7760 ho        1 MOL      0.367798
    186 H91        -1.6210   -1.7540   -4.0720 ho        1 MOL      0.367798
    187 O26         0.1100    0.8880   -3.0770 oh        1 MOL     -0.747121
    188 H92         0.9540    0.6610   -3.4650 ho        1 MOL      0.367798
    189 H93        -0.1990    1.6390   -3.6010 ho        1 MOL      0.367798
@<TRIPOS>BOND
     1    1    2 1   
     2    1    4 1   
     3    1    5 1   
     4    1    6 1   
     5    2    3 2   
     6    2    7 1   
     7    7    8 1   
     8    7   15 1   
     9    8    9 1   
    10    8   11 1   
    11    8   16 1   
    12    9   10 2   
    13    9   19 1   
    14   11   12 1   
    15   11   17 1   
    16   11   18 1   
    17   12   13 1   
    18   12   14 1   
    19   19   20 1   
    20   19   28 1   
    21   20   21 1   
    22   20   23 1   
    23   20   29 1   
    24   21   22 2   
    25   21   41 1   
    26   23   24 1   
    27   23   30 1   
    28   23   31 1   
    29   24   25 1   
    30   24   32 1   
    31   24   33 1   
    32   25   26 1   
    33   25   34 1   
    34   25   35 1   
    35   26   27 1   
    36   26   36 1   
    37   26   37 1   
    38   27   38 1   
    39   27   39 1   
    40   27   40 1   
    41   41   42 1   
    42   41   49 1   
    43   42   43 1   
    44   42   45 1   
    45   42   50 1   
    46   43   44 2   
    47   43   53 1   
    48   45   46 1   
    49   45   51 1   
    50   45   52 1   
    51   46   47 1   
    52   46   48 1   
    53   53   54 1   
    54   53   57 1   
    55   54   55 1   
    56   54   58 1   
    57   54   59 1   
    58   55   56 2   
    59   55   60 1   
    60   60   61 1   
    61   60   68 1   
    62   61   62 1   
    63   61   64 1   
    64   61   69 1   
    65   62   63 2   
    66   62   72 1   
    67   64   65 1   
    68   64   70 1   
    69   64   71 1   
    70   65   66 1   
    71   65   67 1   
    72   72   73 1   
    73   72   76 1   
    74   73   74 1   
    75   73   77 1   
    76   73   78 1   
    77   74   75 2   
    78   74   79 1   
    79   79   80 1   
    80   79   86 1   
    81   80   81 1   
    82   80   83 1   
    83   80   87 1   
    84   81   82 2   
    85   81   93 1   
    86   83   84 1   
    87   83   85 1   
    88   83   88 1   
    89   84   90 1   
    90   84   91 1   
    91   84   92 1   
    92   85   89 1   
    93   93   94 1   
    94   93  101 1   
    95   94   95 1   
    96   94   97 1   
    97   94  102 1   
    98   95   96 2   
    99   95  112 1   
   100   97   98 1   
   101   97   99 1   
   102   97  103 1   
   103   98  100 1   
   104   98  104 1   
   105   98  105 1   
   106   99  106 1   
   107   99  107 1   
   108   99  108 1   
   109  100  109 1   
   110  100  110 1   
   111  100  111 1   
   112  112  113 1   
   113  112  119 1   
   114  113  114 1   
   115  113  116 1   
   116  113  120 1   
   117  114  115 2   
   118  114  126 1   
   119  116  117 1   
   120  116  118 1   
   121  116  121 1   
   122  117  123 1   
   123  117  124 1   
   124  117  125 1   
   125  118  122 1   
   126  126  127 1   
   127  126  133 1   
   128  127  128 1   
   129  127  130 1   
   130  127  134 1   
   131  128  129 2   
   132  128  140 1   
   133  130  131 1   
   134  130  132 1   
   135  130  135 1   
   136  131  137 1   
   137  131  138 1   
   138  131  139 1   
   139  132  136 1   
   140  140  141 1   
   141  140  149 1   
   142  141  142 1   
   143  141  144 1   
   144  141  150 1   
   145  142  143 2   
   146  142  162 1   
   147  144  145 1   
   148  144  151 1   
   149  144  152 1   
   150  145  146 1   
   151  145  153 1   
   152  145  154 1   
   153  146  147 1   
   154  146  155 1   
   155  146  156 1   
   156  147  148 1   
   157  147  157 1   
   158  147  158 1   
   159  148  159 1   
   160  148  160 1   
   161  148  161 1   
   162  162  163 1   
   163  162  171 1   
   164  163  164 1   
   165  163  166 1   
   166  163  172 1   
   167  164  165 2   
   168  164  177 1   
   169  166  167 1   
   170  166  173 1   
   171  166  174 1   
   172  167  168 1   
   173  167  175 1   
   174  167  176 1   
   175  168  169 1   
   176  168  170 1   
   177  177  178 1   
   178  177  182 1   
   179  178  179 1   
   180  178  180 1   
   181  178  181 1   
   182  184  185 1   
   183  184  186 1   
   184  187  188 1   
   185  187  189 1   
@<TRIPOS>SUBSTRUCTURE
     1 MOL         1 TEMP              0 ****  ****    0 ROOT
