@<TRIPOS>MOLECULE
MOL
  176   174     1     0     0
SMALL
resp


@<TRIPOS>ATOM
      1 C1          1.6950   -3.6400    6.8920 c3        1 MOL     -0.230523
      2 C2          1.1900   -3.1340    5.4880 c         1 MOL      0.681365
      3 O1          0.0040   -3.2420    5.1630 o         1 MOL     -0.541790
      4 H1          2.5020   -4.3590    6.7490 hc        1 MOL      0.060740
      5 H2          2.0620   -2.7940    7.4720 hc        1 MOL      0.060740
      6 H3          0.8720   -4.1180    7.4240 hc        1 MOL      0.060740
      7 N1          2.1410   -2.6380    4.6600 n         1 MOL     -0.631771
      8 C3          1.8710   -2.5540    3.2770 c3        1 MOL      0.039305
      9 C4          1.5770   -3.9280    2.5680 c         1 MOL      0.669857
     10 O2          1.9550   -4.9920    2.9930 o         1 MOL     -0.552677
     11 C5          2.9770   -1.8110    2.6490 c3        1 MOL      0.010161
     12 C6          2.8010   -1.4140    1.1740 c         1 MOL      0.777366
     13 O3          2.6820   -2.2740    0.2990 o         1 MOL     -0.860398
     14 O4          2.9430   -0.2270    0.7810 o         1 MOL     -0.860398
     15 H4          3.0940   -2.5100    4.9670 hn        1 MOL      0.338864
     16 H5          0.9610   -1.9810    3.0660 h1        1 MOL      0.029518
     17 H6          3.8570   -2.4280    2.7810 hc        1 MOL      0.006028
     18 H7          3.1400   -0.8930    3.2110 hc        1 MOL      0.006028
     19 N2          0.7900   -3.9500    1.4720 n         1 MOL     -0.328329
     20 C7          0.3870   -5.0520    0.6370 c3        1 MOL     -0.187532
     21 C8          1.4670   -5.6510   -0.3080 c         1 MOL      0.525606
     22 O5          1.4780   -6.8370   -0.6190 o         1 MOL     -0.578628
     23 C9         -0.8210   -4.8330   -0.2400 c3        1 MOL      0.323461
     24 C10        -1.5640   -6.0510   -0.9150 c3        1 MOL     -0.395242
     25 C11        -2.9280   -5.6970   -1.4840 c3        1 MOL      0.301719
     26 C12        -3.7730   -6.9190   -1.9420 c3        1 MOL      0.006463
     27 N3         -5.0880   -6.4590   -2.3980 n4        1 MOL     -0.233195
     28 H8          0.4010   -3.0870    1.1300 hn        1 MOL      0.133415
     29 H9          0.0730   -5.8280    1.3230 h1        1 MOL      0.109709
     30 H10        -0.5880   -4.0680   -0.9840 hc        1 MOL     -0.046806
     31 H11        -1.5190   -4.3380    0.4200 hc        1 MOL     -0.046806
     32 H12        -1.7360   -6.7150   -0.0630 hc        1 MOL      0.097844
     33 H13        -0.8800   -6.5300   -1.6050 hc        1 MOL      0.097844
     34 H14        -2.8370   -5.0660   -2.3670 hc        1 MOL     -0.056562
     35 H15        -3.5550   -5.0950   -0.8380 hc        1 MOL     -0.056562
     36 H16        -3.8820   -7.6210   -1.1160 hx        1 MOL      0.068421
     37 H17        -3.2650   -7.4480   -2.7480 hx        1 MOL      0.068421
     38 H18        -5.7510   -7.2200   -2.3820 hn        1 MOL      0.295454
     39 H19        -5.4740   -5.5970   -2.0500 hn        1 MOL      0.295454
     40 H20        -5.0010   -6.3720   -3.4070 hn        1 MOL      0.295454
     41 N4          2.3320   -4.7840   -0.8340 n         1 MOL     -0.382699
     42 C13         3.3720   -5.0070   -1.8820 c3        1 MOL      0.195709
     43 C14         4.7720   -4.4730   -1.4600 c         1 MOL      0.337200
     44 O6          5.7400   -4.7990   -2.0910 o         1 MOL     -0.513517
     45 C15         2.9910   -4.1790   -3.1420 c3        1 MOL     -0.416977
     46 C16         2.4250   -2.7830   -2.8900 c         1 MOL      0.781123
     47 O7          1.1810   -2.5870   -2.7530 o         1 MOL     -0.720057
     48 O8          3.2310   -1.8010   -2.7640 o         1 MOL     -0.720057
     49 H21         2.1850   -3.8190   -0.5540 hn        1 MOL      0.364439
     50 H22         3.5570   -6.0550   -2.1190 h1        1 MOL      0.092791
     51 H23         2.2070   -4.8210   -3.5590 hc        1 MOL      0.102772
     52 H24         3.8410   -4.0980   -3.8190 hc        1 MOL      0.102772
     53 N5          4.8840   -3.6730   -0.3960 n         1 MOL     -0.171224
     54 C17         6.0990   -3.1550    0.2430 c3        1 MOL      0.019985
     55 C18         6.6660   -1.9640   -0.5730 c         1 MOL      0.540786
     56 O9          7.8850   -1.9450   -0.5800 o         1 MOL     -0.580358
     57 H25         4.0160   -3.4640    0.0910 hn        1 MOL      0.084786
     58 H26         6.8710   -3.9160    0.3820 h1        1 MOL      0.045940
     59 H27         5.9180   -2.7180    1.2270 h1        1 MOL      0.045940
     60 N6          5.8960   -0.9590   -0.9830 n         1 MOL     -0.277759
     61 C19         6.3160    0.2980   -1.6650 c3        1 MOL     -0.156862
     62 C20         6.2340    1.5290   -0.7720 c         1 MOL      0.383372
     63 O10         6.2690    2.6500   -1.2200 o         1 MOL     -0.425962
     64 C21         5.4950    0.3840   -2.9620 c3        1 MOL     -0.012999
     65 C22         4.1000    0.9830   -2.8050 c         1 MOL      0.447116
     66 N7          3.5740    1.5280   -3.8710 n         1 MOL     -0.618850
     67 O11         3.5260    1.0450   -1.7060 o         1 MOL     -0.597505
     68 H28         4.8880   -0.9980   -0.9340 hn        1 MOL      0.326595
     69 H29         7.3560    0.2570   -2.0020 h1        1 MOL      0.156930
     70 H30         5.4290   -0.6150   -3.3860 hc        1 MOL      0.058661
     71 H31         6.1280    0.9490   -3.6470 hc        1 MOL      0.058661
     72 H32         3.9690    1.4520   -4.8030 hn        1 MOL      0.323618
     73 H33         2.6320    1.8770   -3.8460 hn        1 MOL      0.323618
     74 N8          6.0750    1.2750    0.5290 n         1 MOL     -0.297678
     75 C23         6.0570    2.3240    1.5980 c3        1 MOL     -0.234020
     76 C24         4.6430    3.1100    1.7950 c         1 MOL      0.563646
     77 O12         4.5270    3.8810    2.7560 o         1 MOL     -0.545427
     78 H34         5.8340    0.3410    0.8170 hn        1 MOL      0.257657
     79 H35         6.9520    2.9460    1.5340 h1        1 MOL      0.134154
     80 H36         6.1180    1.7150    2.4990 h1        1 MOL      0.134154
     81 N9          3.6990    2.9760    0.7930 n         1 MOL     -0.442281
     82 C25         2.4600    3.8000    0.6130 c3        1 MOL      0.363703
     83 C26         1.1850    2.8690    0.4140 c         1 MOL      0.313025
     84 O13         1.1760    2.0220   -0.4750 o         1 MOL     -0.567140
     85 C27         2.5090    4.7780   -0.6190 c3        1 MOL      0.013372
     86 C28         3.4890    5.9010   -0.5580 ca        1 MOL     -0.013436
     87 C29         4.8020    5.7720   -1.0220 ca        1 MOL     -0.184941
     88 C30         3.1150    7.0430    0.1870 ca        1 MOL     -0.184941
     89 C31         5.6880    6.8970   -0.8880 ca        1 MOL     -0.121482
     90 C32         4.0860    8.1050    0.3930 ca        1 MOL     -0.121482
     91 C33         5.3140    8.0960   -0.2240 ca        1 MOL      0.160552
     92 O14         6.2910    9.0310   -0.0990 oh        1 MOL     -0.413185
     93 H37         3.7670    2.3010    0.0460 hn        1 MOL      0.422548
     94 H38         2.2550    4.4030    1.4940 h1        1 MOL     -0.021927
     95 H39         1.4770    5.0600   -0.8660 hc        1 MOL      0.012475
     96 H40         2.6930    4.1320   -1.4810 hc        1 MOL      0.012475
     97 H41         5.0550    4.8110   -1.4510 ha        1 MOL      0.104385
     98 H42         2.1450    7.0890    0.6590 ha        1 MOL      0.104385
     99 H43         6.6720    6.8790   -1.3380 ha        1 MOL      0.111105
    100 H44         3.8890    8.9440    1.0480 ha        1 MOL      0.111105
    101 H45         5.8720    9.8370    0.1980 ho        1 MOL      0.335573
    102 N10         0.1480    3.1640    1.1350 n         1 MOL     -0.401650
    103 C34        -1.1930    2.5170    1.1310 c3        1 MOL      0.074828
    104 C35        -2.4100    3.5160    0.7870 c         1 MOL      0.551898
    105 O15        -2.6050    4.5510    1.4820 o         1 MOL     -0.516817
    106 C36        -1.4560    1.9240    2.5120 c3        1 MOL     -0.152834
    107 C37        -0.3610    0.8850    2.8140 c3        1 MOL      0.147772
    108 C38        -2.9120    1.3580    2.5410 c3        1 MOL     -0.119752
    109 C39        -0.2190    0.6030    4.2950 c3        1 MOL     -0.254260
    110 H46         0.2420    3.9650    1.7470 hn        1 MOL      0.281687
    111 H47        -1.2270    1.7670    0.3500 h1        1 MOL      0.026384
    112 H48        -1.2770    2.6930    3.2580 hc        1 MOL      0.062206
    113 H49         0.6390    1.1530    2.4680 hc        1 MOL      0.036829
    114 H50        -0.5700   -0.0990    2.3940 hc        1 MOL      0.036829
    115 H51        -2.8920    0.4980    1.8690 hc        1 MOL      0.047400
    116 H52        -3.0640    0.8300    3.4810 hc        1 MOL      0.047400
    117 H53        -3.7500    2.0470    2.4060 hc        1 MOL      0.047400
    118 H54         0.6370   -0.0360    4.5140 hc        1 MOL      0.057356
    119 H55        -0.0300    1.5550    4.8020 hc        1 MOL      0.057356
    120 H56        -1.1370    0.1080    4.6330 hc        1 MOL      0.057356
    121 N11        -3.1740    3.1780   -0.3130 n         1 MOL     -0.440618
    122 C40        -4.4360    3.8540   -0.6930 c3        1 MOL     -0.058728
    123 C41        -5.6830    3.2680   -0.0800 c         1 MOL      0.569318
    124 O16        -5.6380    2.2750    0.5870 o         1 MOL     -0.406125
    125 C42        -4.5380    3.8590   -2.1840 c3        1 MOL      0.075957
    126 O17        -4.6800    2.5670   -2.6330 oh        1 MOL     -0.501723
    127 H57        -2.8940    2.3040   -0.7180 hn        1 MOL      0.284850
    128 H58        -4.2980    4.8730   -0.3220 h1        1 MOL      0.095762
    129 H59        -3.6960    4.3780   -2.6470 h1        1 MOL      0.057076
    130 H60        -5.4360    4.4170   -2.4670 h1        1 MOL      0.057076
    131 H61        -3.8310    2.1330   -2.5220 ho        1 MOL      0.367303
    132 N12        -6.8070    4.0410   -0.1730 n         1 MOL     -0.495602
    133 C43        -8.0690    3.5160    0.3780 c3        1 MOL      0.058054
    134 C44        -8.6880    2.2950   -0.2010 c         1 MOL      0.624177
    135 O18        -9.5740    1.7120    0.3690 o         1 MOL     -0.524481
    136 C45        -9.1130    4.6910    0.3540 c3        1 MOL     -0.300072
    137 H62        -6.8050    5.0140   -0.4340 hn        1 MOL      0.306568
    138 H63        -7.8340    3.2820    1.4190 h1        1 MOL      0.089239
    139 H64        -9.7980    4.4610    1.1700 hc        1 MOL      0.100693
    140 H65        -8.6470    5.6700    0.4780 hc        1 MOL      0.100693
    141 H66        -9.7090    4.7260   -0.5570 hc        1 MOL      0.100693
    142 N13        -8.1370    1.7560   -1.3270 n         1 MOL     -0.612580
    143 C46        -8.4520    0.3700   -1.8370 c3        1 MOL      0.257802
    144 C47        -7.6040   -0.7380   -1.1130 c         1 MOL      0.333684
    145 O19        -8.0080   -1.8290   -0.8310 o         1 MOL     -0.483088
    146 C48        -8.2060    0.4590   -3.3350 c3        1 MOL     -0.219151
    147 H67        -7.3270    2.1420   -1.7920 hn        1 MOL      0.328759
    148 H68        -9.4950    0.0670   -1.8070 h1        1 MOL      0.069289
    149 H69        -7.2840    0.9850   -3.5430 hc        1 MOL      0.060630
    150 H70        -8.2330   -0.5340   -3.7920 hc        1 MOL      0.060630
    151 H71        -9.0350    0.9620   -3.8280 hc        1 MOL      0.060630
    152 N14        -6.2860   -0.4620   -0.9620 n         1 MOL     -0.187227
    153 C49        -5.2630   -1.2560   -0.2810 c3        1 MOL     -0.134073
    154 C50        -5.5120   -1.3560    1.1860 c         1 MOL      0.478659
    155 O20        -5.5600   -2.4940    1.7020 o         1 MOL     -0.560513
    156 C51        -3.8480   -0.7010   -0.6660 c3        1 MOL     -0.142457
    157 C52        -2.7760   -1.5700   -0.0990 c3        1 MOL     -0.060899
    158 C53        -1.3280   -1.1520   -0.5080 c         1 MOL      0.767662
    159 O21        -0.3590   -1.2760    0.2930 o         1 MOL     -0.752148
    160 O22        -1.1390   -0.5210   -1.5580 o         1 MOL     -0.752148
    161 H72        -6.0380    0.4850   -1.2110 hn        1 MOL      0.076462
    162 H73        -5.2320   -2.2460   -0.7240 h1        1 MOL      0.121635
    163 H74        -3.8030    0.3110   -0.2670 hc        1 MOL      0.048368
    164 H75        -3.7140   -0.6900   -1.7530 hc        1 MOL      0.048368
    165 H76        -2.9510   -2.5720   -0.4990 hc        1 MOL      0.049187
    166 H77        -2.8610   -1.6260    0.9940 hc        1 MOL      0.049187
    167 N15        -6.0150   -0.3000    1.8660 n         1 MOL     -0.035390
    168 C54        -6.3830   -0.3080    3.2850 c3        1 MOL     -0.187288
    169 H78        -7.4040    0.0560    3.3960 h1        1 MOL      0.083596
    170 H79        -6.3170   -1.3250    3.6730 h1        1 MOL      0.083596
    171 H80        -5.7040    0.3380    3.8420 h1        1 MOL      0.083596
    172 H81        -6.1640    0.5170    1.2910 hn        1 MOL      0.112405
    173 Ca1         1.4260   -0.4130   -1.2180 Ca        1 MOL      1.760481
    174 O23         0.6400    0.0920   -3.7380 oh        1 MOL     -0.824044
    175 H82         0.2700    0.8760   -4.1430 ho        1 MOL      0.405881
    176 H83         0.5610   -0.5930   -4.4050 ho        1 MOL      0.405881
@<TRIPOS>BOND
     1    1    2 1   
     2    1    4 1   
     3    1    5 1   
     4    1    6 1   
     5    2    3 2   
     6    2    7 1   
     7    7    8 1   
     8    7   15 1   
     9    8    9 1   
    10    8   11 1   
    11    8   16 1   
    12    9   10 2   
    13    9   19 1   
    14   11   12 1   
    15   11   17 1   
    16   11   18 1   
    17   12   13 1   
    18   12   14 1   
    19   19   20 1   
    20   19   28 1   
    21   20   21 1   
    22   20   23 1   
    23   20   29 1   
    24   21   22 2   
    25   21   41 1   
    26   23   24 1   
    27   23   30 1   
    28   23   31 1   
    29   24   25 1   
    30   24   32 1   
    31   24   33 1   
    32   25   26 1   
    33   25   34 1   
    34   25   35 1   
    35   26   27 1   
    36   26   36 1   
    37   26   37 1   
    38   27   38 1   
    39   27   39 1   
    40   27   40 1   
    41   41   42 1   
    42   41   49 1   
    43   42   43 1   
    44   42   45 1   
    45   42   50 1   
    46   43   44 2   
    47   43   53 1   
    48   45   46 1   
    49   45   51 1   
    50   45   52 1   
    51   46   47 1   
    52   46   48 1   
    53   53   54 1   
    54   53   57 1   
    55   54   55 1   
    56   54   58 1   
    57   54   59 1   
    58   55   56 2   
    59   55   60 1   
    60   60   61 1   
    61   60   68 1   
    62   61   62 1   
    63   61   64 1   
    64   61   69 1   
    65   62   63 2   
    66   62   74 1   
    67   64   65 1   
    68   64   70 1   
    69   64   71 1   
    70   65   66 1   
    71   65   67 2   
    72   66   72 1   
    73   66   73 1   
    74   74   75 1   
    75   74   78 1   
    76   75   76 1   
    77   75   79 1   
    78   75   80 1   
    79   76   77 2   
    80   76   81 1   
    81   81   82 1   
    82   81   93 1   
    83   82   83 1   
    84   82   85 1   
    85   82   94 1   
    86   83   84 2   
    87   83  102 1   
    88   85   86 1   
    89   85   95 1   
    90   85   96 1   
    91   86   87 ar  
    92   86   88 ar  
    93   87   89 ar  
    94   87   97 1   
    95   88   90 ar  
    96   88   98 1   
    97   89   91 ar  
    98   89   99 1   
    99   90   91 ar  
   100   90  100 1   
   101   91   92 1   
   102   92  101 1   
   103  102  103 1   
   104  102  110 1   
   105  103  104 1   
   106  103  106 1   
   107  103  111 1   
   108  104  105 2   
   109  104  121 1   
   110  106  107 1   
   111  106  108 1   
   112  106  112 1   
   113  107  109 1   
   114  107  113 1   
   115  107  114 1   
   116  108  115 1   
   117  108  116 1   
   118  108  117 1   
   119  109  118 1   
   120  109  119 1   
   121  109  120 1   
   122  121  122 1   
   123  121  127 1   
   124  122  123 1   
   125  122  125 1   
   126  122  128 1   
   127  123  124 2   
   128  123  132 1   
   129  125  126 1   
   130  125  129 1   
   131  125  130 1   
   132  126  131 1   
   133  132  133 1   
   134  132  137 1   
   135  133  134 1   
   136  133  136 1   
   137  133  138 1   
   138  134  135 2   
   139  134  142 1   
   140  136  139 1   
   141  136  140 1   
   142  136  141 1   
   143  142  143 1   
   144  142  147 1   
   145  143  144 1   
   146  143  146 1   
   147  143  148 1   
   148  144  145 2   
   149  144  152 1   
   150  146  149 1   
   151  146  150 1   
   152  146  151 1   
   153  152  153 1   
   154  152  161 1   
   155  153  154 1   
   156  153  156 1   
   157  153  162 1   
   158  154  155 2   
   159  154  167 1   
   160  156  157 1   
   161  156  163 1   
   162  156  164 1   
   163  157  158 1   
   164  157  165 1   
   165  157  166 1   
   166  158  159 1   
   167  158  160 1   
   168  167  168 1   
   169  167  172 1   
   170  168  169 1   
   171  168  170 1   
   172  168  171 1   
   173  174  175 1   
   174  174  176 1   
@<TRIPOS>SUBSTRUCTURE
     1 MOL         1 TEMP              0 ****  ****    0 ROOT
