@<TRIPOS>MOLECULE
MOL
  189   185     1     0     0
SMALL
resp


@<TRIPOS>ATOM
      1 C1          0.6070   -4.9040    5.6790 c3        1 MOL     -0.332251
      2 C2          1.2040   -4.1500    4.4660 c         1 MOL      0.728260
      3 O1          1.3400   -2.9000    4.4970 o         1 MOL     -0.611553
      4 H1         -0.0820   -4.2490    6.2110 hc        1 MOL      0.084452
      5 H2          0.0710   -5.7870    5.3310 hc        1 MOL      0.084452
      6 H3          1.4110   -5.2080    6.3500 hc        1 MOL      0.084452
      7 N1          1.6280   -4.8790    3.4440 n         1 MOL     -0.636633
      8 C3          2.1040   -4.2500    2.2400 c3        1 MOL      0.249936
      9 C4          1.8370   -5.1540    1.0010 c         1 MOL      0.509350
     10 O2          1.9740   -6.3650    1.0050 o         1 MOL     -0.555841
     11 C5          3.5450   -4.0200    2.5620 c3        1 MOL     -0.250508
     12 C6          4.2700   -3.1970    1.4390 c         1 MOL      0.677466
     13 O3          5.5050   -3.2670    1.3290 o         1 MOL     -0.688518
     14 O4          3.6300   -2.4580    0.7050 o         1 MOL     -0.688518
     15 H4          1.5390   -5.8820    3.4740 hn        1 MOL      0.323898
     16 H5          1.5680   -3.3240    2.0590 h1        1 MOL      0.053725
     17 H6          3.9890   -5.0090    2.6010 hc        1 MOL      0.066069
     18 H7          3.7820   -3.4610    3.4690 hc        1 MOL      0.066069
     19 N2          1.3790   -4.4940   -0.0950 n         1 MOL     -0.328318
     20 C7          1.2720   -5.1380   -1.3810 c3        1 MOL     -0.031526
     21 C8          2.5650   -4.9590   -2.1970 c         1 MOL      0.656055
     22 O5          2.9400   -5.9360   -2.9110 o         1 MOL     -0.613221
     23 C9          0.0400   -4.6680   -2.2060 c3        1 MOL      0.247001
     24 C10        -1.1950   -4.8700   -1.2880 c3        1 MOL      0.041629
     25 C11         0.0620   -5.4980   -3.4880 c3        1 MOL     -0.274288
     26 C12        -2.5910   -4.4480   -1.8810 c3        1 MOL     -0.429971
     27 H8          1.0770   -3.5360    0.0110 hn        1 MOL      0.080157
     28 H9          1.1240   -6.1980   -1.1900 h1        1 MOL      0.057890
     29 H10         0.0890   -3.6210   -2.5020 hc        1 MOL      0.003903
     30 H11        -1.1140   -4.4080   -0.2990 hc        1 MOL      0.000825
     31 H12        -1.1550   -5.9250   -1.0060 hc        1 MOL      0.000825
     32 H13        -0.8930   -5.5130   -4.0240 hc        1 MOL      0.050021
     33 H14         0.8260   -5.1150   -4.1620 hc        1 MOL      0.050021
     34 H15         0.2680   -6.5410   -3.2610 hc        1 MOL      0.050021
     35 H16        -2.8280   -5.0080   -2.7870 hc        1 MOL      0.107951
     36 H17        -3.4000   -4.6040   -1.1730 hc        1 MOL      0.107951
     37 H18        -2.6490   -3.3730   -1.7570 hc        1 MOL      0.107951
     38 N3          3.3310   -3.8510   -2.0520 n         1 MOL     -0.576783
     39 C13         4.1620   -3.4320   -3.1640 c3        1 MOL      0.138029
     40 C14         5.5610   -2.9400   -2.7870 c         1 MOL      0.345120
     41 O6          6.4180   -2.9400   -3.6410 o         1 MOL     -0.530048
     42 C15         3.4170   -2.2890   -3.8810 c3        1 MOL     -0.451250
     43 C16         2.5850   -1.3350   -2.9750 c         1 MOL      0.730873
     44 O7          2.9970   -1.0550   -1.8490 o         1 MOL     -0.676889
     45 O8          1.4430   -0.9740   -3.4020 o         1 MOL     -0.676889
     46 H19         3.0900   -3.1510   -1.3700 hn        1 MOL      0.463978
     47 H20         4.3320   -4.2800   -3.8330 h1        1 MOL      0.097762
     48 H21         2.7540   -2.7310   -4.6120 hc        1 MOL      0.118728
     49 H22         4.0550   -1.5940   -4.4300 hc        1 MOL      0.118728
     50 N4          5.7830   -2.6440   -1.5190 n         1 MOL     -0.081180
     51 C17         7.0280   -2.0370   -1.2010 c3        1 MOL     -0.027385
     52 C18         7.2980   -0.6160   -1.8040 c         1 MOL      0.395205
     53 O9          8.3650   -0.3580   -2.3100 o         1 MOL     -0.569834
     54 H23         4.9780   -2.5950   -0.9030 hn        1 MOL      0.070451
     55 H24         7.8350   -2.6460   -1.5710 h1        1 MOL      0.045986
     56 H25         7.1720   -1.9370   -0.1270 h1        1 MOL      0.045986
     57 N5          6.2840    0.2510   -1.8130 n         1 MOL     -0.061065
     58 C19         6.3370    1.5470   -2.3570 c3        1 MOL     -0.049554
     59 C20         6.7610    2.5770   -1.3000 c         1 MOL      0.412040
     60 O10         7.1580    3.6420   -1.6440 o         1 MOL     -0.533978
     61 C21         4.9590    1.8830   -2.9650 c3        1 MOL     -0.159522
     62 C22         3.8020    1.9770   -1.9960 c         1 MOL      0.851858
     63 O11         3.9140    1.4480   -0.8580 o         1 MOL     -0.735644
     64 O12         2.7350    2.4090   -2.4860 o         1 MOL     -0.735644
     65 H26         5.4030    0.0260   -1.3700 hn        1 MOL      0.158250
     66 H27         6.9910    1.5570   -3.2300 h1        1 MOL      0.093640
     67 H28         4.7230    1.1250   -3.7020 hc        1 MOL      0.035870
     68 H29         5.0840    2.8520   -3.4450 hc        1 MOL      0.035870
     69 N6          6.7170    2.2120   -0.0000 n         1 MOL     -0.269072
     70 C23         6.9230    3.2370    1.0810 c3        1 MOL     -0.022190
     71 C24         5.6990    3.9920    1.4990 c         1 MOL      0.390164
     72 O13         5.7350    4.8940    2.3510 o         1 MOL     -0.584844
     73 H30         6.5600    1.2300    0.1850 hn        1 MOL      0.169049
     74 H31         7.7240    3.8800    0.7100 h1        1 MOL      0.075281
     75 H32         7.4790    2.7400    1.8660 h1        1 MOL      0.075281
     76 N7          4.5210    3.6260    0.9640 n         1 MOL     -0.110739
     77 C25         3.2910    4.4030    1.2900 c3        1 MOL      0.104952
     78 C26         2.2180    3.3880    1.7010 c         1 MOL      0.415841
     79 O14         2.4430    2.2250    1.8060 o         1 MOL     -0.572952
     80 C27         2.8700    5.2250    0.1420 c3        1 MOL     -0.201164
     81 C28         3.8080    6.4520    0.1680 c3        1 MOL     -0.117972
     82 C29         3.1790    7.5730   -0.6080 c         1 MOL      0.576267
     83 N8          2.9260    7.4460   -1.9150 n         1 MOL     -0.804320
     84 O15         2.7950    8.6140   -0.0270 o         1 MOL     -0.570977
     85 H33         4.5210    2.8580    0.3010 hn        1 MOL      0.104910
     86 H34         3.3960    5.0490    2.1640 h1        1 MOL      0.086050
     87 H35         1.8400    5.5480    0.2660 hc        1 MOL      0.094347
     88 H36         3.0830    4.6960   -0.7920 hc        1 MOL      0.094347
     89 H37         4.8510    6.2080   -0.0630 hc        1 MOL      0.063917
     90 H38         3.9320    6.8070    1.1880 hc        1 MOL      0.063917
     91 H39         3.2990    6.6660   -2.4300 hn        1 MOL      0.372142
     92 H40         2.3850    8.1550   -2.4020 hn        1 MOL      0.372142
     93 N9          1.0210    3.8100    2.1220 n         1 MOL     -0.398845
     94 C30        -0.1200    3.0300    2.5180 c3        1 MOL      0.149578
     95 C31        -1.3340    3.2670    1.5710 c         1 MOL      0.362238
     96 O16        -1.9660    4.2710    1.6880 o         1 MOL     -0.537667
     97 C32        -0.4720    3.3810    4.0220 c3        1 MOL      0.355567
     98 C33        -1.6540    2.4600    4.4360 c3        1 MOL     -0.375537
     99 C34         0.6570    3.1100    5.0400 c3        1 MOL     -0.375537
    100 H41         0.9970    4.8000    2.3130 hn        1 MOL      0.223950
    101 H42         0.1370    1.9730    2.5000 h1        1 MOL      0.065498
    102 H43        -0.8640    4.3970    4.1220 hc        1 MOL     -0.062014
    103 H44        -2.4610    2.5570    3.7040 hc        1 MOL      0.080491
    104 H45        -1.4230    1.4190    4.1930 hc        1 MOL      0.080491
    105 H46        -1.8710    2.6420    5.4890 hc        1 MOL      0.080491
    106 H47         0.8110    2.0330    5.1080 hc        1 MOL      0.080491
    107 H48         1.5870    3.5530    4.6730 hc        1 MOL      0.080491
    108 H49         0.3560    3.4910    6.0160 hc        1 MOL      0.080491
    109 N10        -1.5290    2.3750    0.6100 n         1 MOL     -0.279642
    110 C35        -2.7280    2.3500   -0.2340 c3        1 MOL      0.092674
    111 C36        -4.0050    2.0220    0.5580 c         1 MOL      0.108727
    112 O17        -4.0670    1.2690    1.5520 o         1 MOL     -0.089337
    113 C37        -2.4720    1.4610   -1.4640 c3        1 MOL     -0.275519
    114 C38        -3.6460    1.3930   -2.4940 c         1 MOL      0.678043
    115 N11        -3.9900    2.5940   -2.9650 n         1 MOL     -0.746696
    116 O18        -4.3270    0.3830   -2.5880 o         1 MOL     -0.575462
    117 H50        -0.9060    1.5830    0.6070 hn        1 MOL      0.227266
    118 H51        -2.9380    3.3440   -0.6240 h1        1 MOL      0.070911
    119 H52        -2.2380    0.4450   -1.1390 hc        1 MOL      0.121377
    120 H53        -1.6020    1.7220   -2.0540 hc        1 MOL      0.121377
    121 H54        -3.3170    3.3570   -2.9350 hn        1 MOL      0.328126
    122 H55        -4.6870    2.6900   -3.6910 hn        1 MOL      0.328126
    123 N12        -5.1890    2.4050   -0.0290 n         1 MOL     -0.193797
    124 C39        -6.4750    2.0920    0.6360 c3        1 MOL      0.222607
    125 C40        -6.7930    0.5750    0.7740 c         1 MOL      0.205129
    126 O19        -7.3600    0.1810    1.7950 o         1 MOL     -0.546300
    127 C41        -7.6150    2.8290   -0.0660 c3        1 MOL     -0.367342
    128 C42        -7.5720    2.8920   -1.6010 ca        1 MOL      0.059720
    129 C43        -7.1390    4.0210   -2.3810 ca        1 MOL     -0.125020
    130 C44        -7.9820    1.7540   -2.3270 ca        1 MOL     -0.125020
    131 C45        -6.8840    3.8750   -3.7420 ca        1 MOL     -0.263602
    132 C46        -7.7200    1.6430   -3.7240 ca        1 MOL     -0.263602
    133 C47        -7.1030    2.7000   -4.4470 ca        1 MOL      0.375225
    134 O20        -6.5380    2.4010   -5.6690 oh        1 MOL     -0.601357
    135 H56        -5.2270    2.9750   -0.8600 hn        1 MOL      0.166297
    136 H57        -6.4530    2.4770    1.6510 h1        1 MOL      0.045256
    137 H58        -7.6380    3.8680    0.2600 hc        1 MOL      0.125748
    138 H59        -8.5790    2.3660    0.1120 hc        1 MOL      0.125748
    139 H60        -6.8080    4.9210   -1.8630 ha        1 MOL      0.106038
    140 H61        -8.3030    0.8570   -1.8030 ha        1 MOL      0.106038
    141 H62        -6.3280    4.6910   -4.1920 ha        1 MOL      0.123477
    142 H63        -7.8250    0.6630   -4.1530 ha        1 MOL      0.123477
    143 H64        -6.3960    1.4520   -5.7700 ho        1 MOL      0.440336
    144 N13        -6.2620   -0.3260   -0.0160 n         1 MOL      0.274976
    145 C48        -6.1490   -1.8060    0.1030 c3        1 MOL     -0.483550
    146 C49        -5.1120   -2.3950    1.1470 c         1 MOL      0.659369
    147 O21        -4.9330   -3.5710    1.2980 o         1 MOL     -0.568040
    148 C50        -5.8710   -2.5040   -1.2630 c3        1 MOL      0.164261
    149 C51        -6.8630   -2.0990   -2.3400 c3        1 MOL     -0.215956
    150 C52        -8.3580   -2.3940   -2.0420 c         1 MOL      0.652521
    151 O22        -8.7020   -3.5580   -1.6590 o         1 MOL     -0.696830
    152 O23        -9.2160   -1.4650   -2.1270 o         1 MOL     -0.696830
    153 H65        -5.8420    0.0470   -0.8620 hn        1 MOL      0.206179
    154 H66        -7.1490   -2.1840    0.3270 h1        1 MOL      0.191154
    155 H67        -5.8580   -3.5930   -1.1980 hc        1 MOL     -0.000103
    156 H68        -4.8910   -2.1600   -1.6060 hc        1 MOL     -0.000103
    157 H69        -6.6760   -2.7200   -3.2090 hc        1 MOL      0.024934
    158 H70        -6.7820   -1.0240   -2.4830 hc        1 MOL      0.024934
    159 N14        -4.3920   -1.5010    1.8900 n         1 MOL     -0.140624
    160 C53        -3.4440   -1.8910    2.9280 c3        1 MOL     -0.013047
    161 C54        -3.8300   -1.1700    4.3090 c         1 MOL      0.364560
    162 O24        -3.8950   -1.8320    5.3820 o         1 MOL     -0.549540
    163 C55        -2.1170   -1.2470    2.6090 c3        1 MOL     -0.011654
    164 C56        -1.6450   -1.6360    1.2450 c3        1 MOL      0.006214
    165 C57        -0.3170   -1.0770    0.8260 c         1 MOL      0.756846
    166 O25         0.4330   -1.7400    0.1190 o         1 MOL     -0.719844
    167 O26         0.0380    0.0700    1.2360 o         1 MOL     -0.719844
    168 H71        -4.5190   -0.5230    1.6640 hn        1 MOL     -0.210649
    169 H72        -3.3530   -2.9600    3.0930 h1        1 MOL      0.092259
    170 H73        -1.3050   -1.4920    3.2900 hc        1 MOL     -0.004671
    171 H74        -2.2620   -0.1780    2.6610 hc        1 MOL     -0.004671
    172 H75        -2.4060   -1.2500    0.5610 hc        1 MOL      0.020283
    173 H76        -1.5930   -2.7180    1.1710 hc        1 MOL      0.020283
    174 N15        -4.2990    0.1010    4.2880 n         1 MOL      0.048821
    175 C58        -4.8450    0.7180    5.4470 c3        1 MOL     -0.155553
    176 H77        -4.6210    1.7840    5.4290 h1        1 MOL      0.055850
    177 H78        -5.9250    0.5730    5.4610 h1        1 MOL      0.055850
    178 H79        -4.4060    0.2710    6.3380 h1        1 MOL      0.055850
    179 H80        -4.0760    0.6390    3.4650 hn        1 MOL      0.035300
    180 Ca1         2.4370   -0.1450    0.5040 Ca        1 MOL      1.759771
    181 O27         2.2410   -0.8670    3.0050 oh        1 MOL     -0.879434
    182 H81         2.8090   -0.5300    3.6930 ho        1 MOL      0.412355
    183 H82         1.8010   -1.6280    3.3900 ho        1 MOL      0.412355
    184 O28         5.3590   -0.4870    1.3750 oh        1 MOL     -0.879434
    185 H83         5.9450   -0.0930    2.0200 ho        1 MOL      0.412355
    186 H84         5.4770   -1.4290    1.4820 ho        1 MOL      0.412355
    187 O29         0.7730    0.9710   -1.4470 oh        1 MOL     -0.879434
    188 H85         1.0850    0.2270   -1.9790 ho        1 MOL      0.412355
    189 H86         1.2670    1.7230   -1.7870 ho        1 MOL      0.412355
@<TRIPOS>BOND
     1    1    2 1   
     2    1    4 1   
     3    1    5 1   
     4    1    6 1   
     5    2    3 2   
     6    2    7 1   
     7    7    8 1   
     8    7   15 1   
     9    8    9 1   
    10    8   11 1   
    11    8   16 1   
    12    9   10 2   
    13    9   19 1   
    14   11   12 1   
    15   11   17 1   
    16   11   18 1   
    17   12   13 1   
    18   12   14 1   
    19   19   20 1   
    20   19   27 1   
    21   20   21 1   
    22   20   23 1   
    23   20   28 1   
    24   21   22 2   
    25   21   38 1   
    26   23   24 1   
    27   23   25 1   
    28   23   29 1   
    29   24   26 1   
    30   24   30 1   
    31   24   31 1   
    32   25   32 1   
    33   25   33 1   
    34   25   34 1   
    35   26   35 1   
    36   26   36 1   
    37   26   37 1   
    38   38   39 1   
    39   38   46 1   
    40   39   40 1   
    41   39   42 1   
    42   39   47 1   
    43   40   41 2   
    44   40   50 1   
    45   42   43 1   
    46   42   48 1   
    47   42   49 1   
    48   43   44 1   
    49   43   45 1   
    50   50   51 1   
    51   50   54 1   
    52   51   52 1   
    53   51   55 1   
    54   51   56 1   
    55   52   53 2   
    56   52   57 1   
    57   57   58 1   
    58   57   65 1   
    59   58   59 1   
    60   58   61 1   
    61   58   66 1   
    62   59   60 2   
    63   59   69 1   
    64   61   62 1   
    65   61   67 1   
    66   61   68 1   
    67   62   63 1   
    68   62   64 1   
    69   69   70 1   
    70   69   73 1   
    71   70   71 1   
    72   70   74 1   
    73   70   75 1   
    74   71   72 2   
    75   71   76 1   
    76   76   77 1   
    77   76   85 1   
    78   77   78 1   
    79   77   80 1   
    80   77   86 1   
    81   78   79 2   
    82   78   93 1   
    83   80   81 1   
    84   80   87 1   
    85   80   88 1   
    86   81   82 1   
    87   81   89 1   
    88   81   90 1   
    89   82   83 1   
    90   82   84 2   
    91   83   91 1   
    92   83   92 1   
    93   93   94 1   
    94   93  100 1   
    95   94   95 1   
    96   94   97 1   
    97   94  101 1   
    98   95   96 2   
    99   95  109 1   
   100   97   98 1   
   101   97   99 1   
   102   97  102 1   
   103   98  103 1   
   104   98  104 1   
   105   98  105 1   
   106   99  106 1   
   107   99  107 1   
   108   99  108 1   
   109  109  110 1   
   110  109  117 1   
   111  110  111 1   
   112  110  113 1   
   113  110  118 1   
   114  111  112 2   
   115  111  123 1   
   116  113  114 1   
   117  113  119 1   
   118  113  120 1   
   119  114  115 1   
   120  114  116 2   
   121  115  121 1   
   122  115  122 1   
   123  123  124 1   
   124  123  135 1   
   125  124  125 1   
   126  124  127 1   
   127  124  136 1   
   128  125  126 2   
   129  125  144 1   
   130  127  128 1   
   131  127  137 1   
   132  127  138 1   
   133  128  129 ar  
   134  128  130 ar  
   135  129  131 ar  
   136  129  139 1   
   137  130  132 ar  
   138  130  140 1   
   139  131  133 ar  
   140  131  141 1   
   141  132  133 ar  
   142  132  142 1   
   143  133  134 1   
   144  134  143 1   
   145  144  145 1   
   146  144  153 1   
   147  145  146 1   
   148  145  148 1   
   149  145  154 1   
   150  146  147 2   
   151  146  159 1   
   152  148  149 1   
   153  148  155 1   
   154  148  156 1   
   155  149  150 1   
   156  149  157 1   
   157  149  158 1   
   158  150  151 1   
   159  150  152 1   
   160  159  160 1   
   161  159  168 1   
   162  160  161 1   
   163  160  163 1   
   164  160  169 1   
   165  161  162 2   
   166  161  174 1   
   167  163  164 1   
   168  163  170 1   
   169  163  171 1   
   170  164  165 1   
   171  164  172 1   
   172  164  173 1   
   173  165  166 1   
   174  165  167 1   
   175  174  175 1   
   176  174  179 1   
   177  175  176 1   
   178  175  177 1   
   179  175  178 1   
   180  181  182 1   
   181  181  183 1   
   182  184  185 1   
   183  184  186 1   
   184  187  188 1   
   185  187  189 1   
@<TRIPOS>SUBSTRUCTURE
     1 MOL         1 TEMP              0 ****  ****    0 ROOT
