@<TRIPOS>MOLECULE
MOL
  182   178     1     0     0
SMALL
resp


@<TRIPOS>ATOM
      1 C1          1.8280    3.7350    4.6470 c3        1 MOL     -0.273281
      2 C2          1.0610    3.2810    3.3860 c         1 MOL      0.690619
      3 O1          1.6360    3.1710    2.3230 o         1 MOL     -0.573215
      4 H1          1.9620    2.8840    5.3160 hc        1 MOL      0.068255
      5 H2          2.8030    4.1270    4.3580 hc        1 MOL      0.068255
      6 H3          1.2590    4.5120    5.1590 hc        1 MOL      0.068255
      7 N1         -0.2660    3.1330    3.3950 n         1 MOL     -0.682540
      8 C3         -1.1090    2.7260    2.3110 c3        1 MOL     -0.032258
      9 C4         -1.8150    3.9870    1.7040 c         1 MOL      0.637762
     10 O2         -2.9490    4.3630    1.9920 o         1 MOL     -0.507174
     11 C5         -2.1460    1.6610    2.7280 c3        1 MOL      0.121711
     12 C6         -2.9540    1.1480    1.5420 c         1 MOL      0.589874
     13 O3         -4.1380    0.8590    1.7290 o         1 MOL     -0.655712
     14 O4         -2.3490    1.1020    0.4860 o         1 MOL     -0.655712
     15 H4         -0.6810    3.4360    4.2710 hn        1 MOL      0.355784
     16 H5         -0.5380    2.3510    1.4570 h1        1 MOL      0.094151
     17 H6         -2.8500    2.0950    3.4300 hc        1 MOL     -0.033082
     18 H7         -1.7210    0.8180    3.2720 hc        1 MOL     -0.033082
     19 N2         -1.0940    4.7470    0.8200 n         1 MOL     -0.481470
     20 C7         -1.4840    6.1000    0.4500 c3        1 MOL     -0.020282
     21 C8         -2.7330    6.0830   -0.5270 c         1 MOL      0.397315
     22 O5         -3.4800    7.0400   -0.6520 o         1 MOL     -0.550655
     23 C9         -0.2230    6.8380   -0.1890 c3        1 MOL     -0.298491
     24 C10         0.9510    7.0230    0.7900 c3        1 MOL      0.258700
     25 C11         2.0950    7.7770    0.0820 c3        1 MOL      0.101410
     26 C12         3.3840    7.8810    0.8470 c3        1 MOL     -0.061222
     27 N3          3.1590    8.4450    2.2330 n4        1 MOL     -0.316286
     28 H8         -0.2200    4.3610    0.4800 hn        1 MOL      0.334997
     29 H9         -1.8110    6.6270    1.3530 h1        1 MOL      0.095187
     30 H10        -0.5000    7.7950   -0.6410 hc        1 MOL      0.116159
     31 H11         0.0330    6.2340   -1.0670 hc        1 MOL      0.116159
     32 H12         1.3890    6.1230    1.2090 hc        1 MOL     -0.065660
     33 H13         0.6270    7.6290    1.6340 hc        1 MOL     -0.065660
     34 H14         1.8140    8.8090   -0.1400 hc        1 MOL     -0.009011
     35 H15         2.2940    7.3380   -0.8970 hc        1 MOL     -0.009011
     36 H16         4.0360    8.5830    0.3390 hx        1 MOL      0.116088
     37 H17         3.8390    6.9040    0.9790 hx        1 MOL      0.116088
     38 H18         2.7040    7.7260    2.7770 hn        1 MOL      0.312354
     39 H19         4.0680    8.7180    2.5850 hn        1 MOL      0.312354
     40 H20         2.5180    9.2260    2.2120 hn        1 MOL      0.312354
     41 N4         -2.9080    4.9370   -1.1510 n         1 MOL     -0.066827
     42 C13        -3.8710    4.7630   -2.2390 c3        1 MOL     -0.013083
     43 C14        -5.0770    4.0800   -1.6760 c         1 MOL      0.373073
     44 O6         -6.1010    4.0160   -2.3130 o         1 MOL     -0.485995
     45 C15        -3.2210    3.9770   -3.3640 c3        1 MOL     -0.225970
     46 C16        -2.6360    2.6380   -2.8930 c         1 MOL      0.804032
     47 O7         -3.1250    1.5430   -3.0870 o         1 MOL     -0.746821
     48 O8         -1.5570    2.6230   -2.2340 o         1 MOL     -0.746821
     49 H21        -2.1940    4.2460   -0.9950 hn        1 MOL      0.089244
     50 H22        -4.2350    5.7200   -2.6120 h1        1 MOL      0.117994
     51 H23        -2.4190    4.5500   -3.8390 hc        1 MOL      0.055690
     52 H24        -4.0580    3.7420   -4.0210 hc        1 MOL      0.055690
     53 N5         -5.0450    3.6570   -0.3960 n         1 MOL     -0.086892
     54 C17        -6.1680    3.0460    0.3510 c3        1 MOL     -0.076478
     55 C18        -6.8730    1.9330   -0.3470 c         1 MOL      0.511974
     56 O9         -8.0580    2.1090   -0.6620 o         1 MOL     -0.542551
     57 H25        -4.2750    3.8530    0.2380 hn        1 MOL      0.134050
     58 H26        -6.9260    3.7940    0.5710 h1        1 MOL      0.059220
     59 H27        -5.7660    2.6000    1.2620 h1        1 MOL      0.059220
     60 N6         -6.1600    0.7970   -0.4840 n         1 MOL     -0.219241
     61 C19        -6.7230   -0.4790   -1.0650 c3        1 MOL     -0.147969
     62 C20        -6.7030   -1.6630   -0.0060 c         1 MOL      0.396252
     63 O10        -7.1980   -2.7280   -0.2420 o         1 MOL     -0.459403
     64 C21        -5.8840   -0.8210   -2.3440 c3        1 MOL     -0.000441
     65 C22        -4.7440   -1.7420   -2.0360 c         1 MOL      0.407036
     66 N7         -4.6350   -2.9090   -2.6940 n         1 MOL     -0.535087
     67 O11        -3.9170   -1.4250   -1.1710 o         1 MOL     -0.655613
     68 H28        -5.1790    0.8800   -0.2760 hn        1 MOL      0.092528
     69 H29        -7.7740   -0.2740   -1.2570 h1        1 MOL      0.140910
     70 H30        -5.5600    0.0800   -2.8760 hc        1 MOL      0.074820
     71 H31        -6.5690   -1.2140   -3.0890 hc        1 MOL      0.074820
     72 H32        -5.3130   -3.2020   -3.3800 hn        1 MOL      0.311553
     73 H33        -3.7610   -3.4010   -2.5580 hn        1 MOL      0.311553
     74 N8         -6.0750   -1.4050    1.1880 n         1 MOL     -0.162291
     75 C23        -5.9090   -2.3320    2.3520 c3        1 MOL     -0.346945
     76 C24        -4.5460   -3.1130    2.4520 c         1 MOL      0.685287
     77 O12        -4.3780   -3.9060    3.3660 o         1 MOL     -0.569151
     78 H34        -5.5910   -0.5230    1.2230 hn        1 MOL      0.195930
     79 H35        -6.6890   -3.0940    2.2880 h1        1 MOL      0.158671
     80 H36        -6.0650   -1.7660    3.2730 h1        1 MOL      0.158671
     81 N9         -3.5020   -2.8250    1.6090 n         1 MOL     -0.599997
     82 C25        -2.3180   -3.6630    1.4350 c3        1 MOL      0.305486
     83 C26        -1.1360   -2.7710    1.1060 c         1 MOL      0.320669
     84 O13        -1.2830   -1.7430    0.4020 o         1 MOL     -0.605937
     85 C27        -2.3940   -4.7180    0.2720 c3        1 MOL     -0.042894
     86 C28        -3.5540   -5.6760    0.3210 ca        1 MOL      0.159394
     87 C29        -4.8640   -5.1840    0.1320 ca        1 MOL     -0.343065
     88 C30        -3.3970   -6.9960    0.7870 ca        1 MOL     -0.343065
     89 C31        -5.9730   -6.0110    0.3590 ca        1 MOL     -0.020595
     90 C32        -4.4950   -7.7610    1.1570 ca        1 MOL     -0.020595
     91 C33        -5.7910   -7.3810    0.7540 ca        1 MOL      0.122092
     92 O14        -6.8820   -8.1810    1.0230 oh        1 MOL     -0.441883
     93 H37        -3.6960   -2.0830    0.9530 hn        1 MOL      0.479002
     94 H38        -2.0330   -4.2090    2.3370 h1        1 MOL      0.030284
     95 H39        -1.4490   -5.2390    0.1120 hc        1 MOL      0.019503
     96 H40        -2.4920   -4.1730   -0.6680 hc        1 MOL      0.019503
     97 H41        -5.0420   -4.1710   -0.1880 ha        1 MOL      0.135767
     98 H42        -2.3950   -7.3420    1.0070 ha        1 MOL      0.135767
     99 H43        -6.9900   -5.6880    0.1700 ha        1 MOL      0.096170
    100 H44        -4.3600   -8.7160    1.6440 ha        1 MOL      0.096170
    101 H45        -6.6000   -8.9750    1.4770 ho        1 MOL      0.348992
    102 N10         0.1130   -3.1210    1.6000 n         1 MOL     -0.305089
    103 C34         1.4130   -2.4860    1.2480 c3        1 MOL     -0.064607
    104 C35         2.5360   -3.5090    0.9450 c         1 MOL      0.399485
    105 O15         2.5010   -4.5510    1.5150 o         1 MOL     -0.504918
    106 C36         1.8990   -1.4260    2.2630 c3        1 MOL     -0.035379
    107 C37         2.3940   -2.1320    3.5660 c3        1 MOL     -0.209746
    108 C38         0.7700   -0.4550    2.7460 c3        1 MOL     -0.002691
    109 C39         2.7540   -1.1600    4.6940 c3        1 MOL     -0.175894
    110 H46         0.1190   -3.9220    2.2120 hn        1 MOL      0.248798
    111 H47         1.2220   -1.9690    0.3110 h1        1 MOL      0.132324
    112 H48         2.7220   -0.8230    1.8800 hc        1 MOL      0.059935
    113 H49         3.3310   -2.6730    3.4150 hc        1 MOL      0.099696
    114 H50         1.5800   -2.7700    3.9300 hc        1 MOL      0.099696
    115 H51         1.1950    0.3160    3.3840 hc        1 MOL      0.050290
    116 H52         0.3090    0.0140    1.8740 hc        1 MOL      0.050290
    117 H53         0.0940   -1.0220    3.3870 hc        1 MOL      0.050290
    118 H54         3.2740   -1.7700    5.4370 hc        1 MOL      0.048986
    119 H55         3.3770   -0.3220    4.3890 hc        1 MOL      0.048986
    120 H56         1.9400   -0.6620    5.2390 hc        1 MOL      0.048986
    121 N11         3.4920   -3.1250    0.0590 n         1 MOL     -0.034791
    122 C40         4.6630   -3.7790   -0.4890 c3        1 MOL     -0.094487
    123 C41         6.0200   -3.1820   -0.0230 c         1 MOL      0.397105
    124 O16         6.0330   -2.0600    0.5120 o         1 MOL     -0.364130
    125 C42         4.6160   -3.9140   -2.0020 c3        1 MOL      0.049375
    126 O17         4.6770   -2.5990   -2.4100 oh        1 MOL     -0.496935
    127 H57         3.4940   -2.1770   -0.2790 hn        1 MOL      0.043285
    128 H58         4.6290   -4.7680   -0.0290 h1        1 MOL      0.049179
    129 H59         3.6600   -4.3230   -2.3360 h1        1 MOL      0.059717
    130 H60         5.4310   -4.5020   -2.4350 h1        1 MOL      0.059717
    131 H61         3.9880   -2.0300   -2.0480 ho        1 MOL      0.389626
    132 N12         7.1030   -3.8970   -0.2610 n         1 MOL     -0.286059
    133 C43         8.4370   -3.3980    0.0970 c3        1 MOL      0.013683
    134 C44         8.8140   -2.0550   -0.5900 c         1 MOL      0.606357
    135 O18         9.3740   -1.2020    0.0610 o         1 MOL     -0.534554
    136 C45         9.4890   -4.4250   -0.0220 c3        1 MOL     -0.233656
    137 H62         7.0650   -4.8790   -0.5210 hn        1 MOL      0.260577
    138 H63         8.3300   -3.1940    1.1560 h1        1 MOL      0.090897
    139 H64        10.3820   -4.0380    0.4630 hc        1 MOL      0.075911
    140 H65         9.2030   -5.3470    0.4920 hc        1 MOL      0.075911
    141 H66         9.6810   -4.5790   -1.0830 hc        1 MOL      0.075911
    142 N13         8.4270   -1.8760   -1.8620 n         1 MOL     -0.483412
    143 C46         8.3390   -0.6370   -2.5980 c3        1 MOL      0.193114
    144 C47         7.5430    0.4740   -1.8820 c         1 MOL      0.299635
    145 O19         7.9870    1.6300   -1.8940 o         1 MOL     -0.508924
    146 C48         7.7920   -1.0300   -3.9840 c3        1 MOL     -0.404616
    147 H67         7.8410   -2.5640   -2.3170 hn        1 MOL      0.276499
    148 H68         9.3760   -0.3060   -2.6570 h1        1 MOL      0.080439
    149 H69         7.6140   -0.1430   -4.5880 hc        1 MOL      0.115440
    150 H70         8.6390   -1.5230   -4.4730 hc        1 MOL      0.115440
    151 H71         6.8990   -1.6500   -3.9850 hc        1 MOL      0.115440
    152 N14         6.3400    0.2050   -1.3470 n         1 MOL      0.086962
    153 C49         5.6750    1.2980   -0.5950 c3        1 MOL     -0.110835
    154 C50         6.2640    1.6010    0.7700 c         1 MOL      0.417241
    155 O20         6.2790    2.7340    1.2310 o         1 MOL     -0.558013
    156 C51         4.1740    0.9120   -0.3210 c3        1 MOL      0.175137
    157 C52         3.3690    0.9120   -1.6890 c3        1 MOL     -0.212566
    158 C53         2.1050    0.0240   -1.6760 c         1 MOL      0.929374
    159 O21         2.3800   -1.1660   -1.7800 o         1 MOL     -0.779862
    160 O22         0.9630    0.4840   -1.3640 o         1 MOL     -0.779862
    161 H72         5.9900   -0.7330   -1.2620 hn        1 MOL     -0.104491
    162 H73         5.5520    2.2120   -1.1620 h1        1 MOL      0.098874
    163 H74         3.7370    1.5000    0.4810 hc        1 MOL     -0.010201
    164 H75         4.0850   -0.1160    0.0260 hc        1 MOL     -0.010201
    165 H76         4.0680    0.6440   -2.4830 hc        1 MOL      0.021473
    166 H77         3.1090    1.9580   -1.8640 hc        1 MOL      0.021473
    167 N15         6.8570    0.5700    1.3860 n         1 MOL      0.016675
    168 C54         7.6440    0.7200    2.6280 c3        1 MOL     -0.325885
    169 H78         7.6300   -0.2190    3.1810 h1        1 MOL      0.116753
    170 H79         8.6730    0.9780    2.3770 h1        1 MOL      0.116753
    171 H80         7.2090    1.5100    3.2410 h1        1 MOL      0.116753
    172 H81         6.6000   -0.3420    1.0350 hn        1 MOL      0.042985
    173 Ca1        -1.6100   -0.2300   -1.7820 Ca        1 MOL      1.792238
    174 O23         0.0460   -2.3640   -2.3100 oh        1 MOL     -0.813535
    175 H82         0.3210   -3.2160   -2.6510 ho        1 MOL      0.391210
    176 H83         0.8570   -1.9340   -2.0360 ho        1 MOL      0.391210
    177 O24        -0.2540    0.2460   -4.2040 oh        1 MOL     -0.813535
    178 H84        -1.0770    0.2320   -4.7060 ho        1 MOL      0.391210
    179 H85         0.3590   -0.2670   -4.7450 ho        1 MOL      0.391210
    180 O25        -2.7750   -1.2690   -4.1890 oh        1 MOL     -0.813535
    181 H86        -2.1390   -1.7870   -4.6950 ho        1 MOL      0.391210
    182 H87        -3.5800   -1.3210   -4.6990 ho        1 MOL      0.391210
@<TRIPOS>BOND
     1    1    2 1   
     2    1    4 1   
     3    1    5 1   
     4    1    6 1   
     5    2    3 2   
     6    2    7 1   
     7    7    8 1   
     8    7   15 1   
     9    8    9 1   
    10    8   11 1   
    11    8   16 1   
    12    9   10 2   
    13    9   19 1   
    14   11   12 1   
    15   11   17 1   
    16   11   18 1   
    17   12   13 1   
    18   12   14 1   
    19   19   20 1   
    20   19   28 1   
    21   20   21 1   
    22   20   23 1   
    23   20   29 1   
    24   21   22 2   
    25   21   41 1   
    26   23   24 1   
    27   23   30 1   
    28   23   31 1   
    29   24   25 1   
    30   24   32 1   
    31   24   33 1   
    32   25   26 1   
    33   25   34 1   
    34   25   35 1   
    35   26   27 1   
    36   26   36 1   
    37   26   37 1   
    38   27   38 1   
    39   27   39 1   
    40   27   40 1   
    41   41   42 1   
    42   41   49 1   
    43   42   43 1   
    44   42   45 1   
    45   42   50 1   
    46   43   44 2   
    47   43   53 1   
    48   45   46 1   
    49   45   51 1   
    50   45   52 1   
    51   46   47 1   
    52   46   48 1   
    53   53   54 1   
    54   53   57 1   
    55   54   55 1   
    56   54   58 1   
    57   54   59 1   
    58   55   56 2   
    59   55   60 1   
    60   60   61 1   
    61   60   68 1   
    62   61   62 1   
    63   61   64 1   
    64   61   69 1   
    65   62   63 2   
    66   62   74 1   
    67   64   65 1   
    68   64   70 1   
    69   64   71 1   
    70   65   66 1   
    71   65   67 2   
    72   66   72 1   
    73   66   73 1   
    74   74   75 1   
    75   74   78 1   
    76   75   76 1   
    77   75   79 1   
    78   75   80 1   
    79   76   77 2   
    80   76   81 1   
    81   81   82 1   
    82   81   93 1   
    83   82   83 1   
    84   82   85 1   
    85   82   94 1   
    86   83   84 2   
    87   83  102 1   
    88   85   86 1   
    89   85   95 1   
    90   85   96 1   
    91   86   87 ar  
    92   86   88 ar  
    93   87   89 ar  
    94   87   97 1   
    95   88   90 ar  
    96   88   98 1   
    97   89   91 ar  
    98   89   99 1   
    99   90   91 ar  
   100   90  100 1   
   101   91   92 1   
   102   92  101 1   
   103  102  103 1   
   104  102  110 1   
   105  103  104 1   
   106  103  106 1   
   107  103  111 1   
   108  104  105 2   
   109  104  121 1   
   110  106  107 1   
   111  106  108 1   
   112  106  112 1   
   113  107  109 1   
   114  107  113 1   
   115  107  114 1   
   116  108  115 1   
   117  108  116 1   
   118  108  117 1   
   119  109  118 1   
   120  109  119 1   
   121  109  120 1   
   122  121  122 1   
   123  121  127 1   
   124  122  123 1   
   125  122  125 1   
   126  122  128 1   
   127  123  124 2   
   128  123  132 1   
   129  125  126 1   
   130  125  129 1   
   131  125  130 1   
   132  126  131 1   
   133  132  133 1   
   134  132  137 1   
   135  133  134 1   
   136  133  136 1   
   137  133  138 1   
   138  134  135 2   
   139  134  142 1   
   140  136  139 1   
   141  136  140 1   
   142  136  141 1   
   143  142  143 1   
   144  142  147 1   
   145  143  144 1   
   146  143  146 1   
   147  143  148 1   
   148  144  145 2   
   149  144  152 1   
   150  146  149 1   
   151  146  150 1   
   152  146  151 1   
   153  152  153 1   
   154  152  161 1   
   155  153  154 1   
   156  153  156 1   
   157  153  162 1   
   158  154  155 2   
   159  154  167 1   
   160  156  157 1   
   161  156  163 1   
   162  156  164 1   
   163  157  158 1   
   164  157  165 1   
   165  157  166 1   
   166  158  159 1   
   167  158  160 1   
   168  167  168 1   
   169  167  172 1   
   170  168  169 1   
   171  168  170 1   
   172  168  171 1   
   173  174  175 1   
   174  174  176 1   
   175  177  178 1   
   176  177  179 1   
   177  180  181 1   
   178  180  182 1   
@<TRIPOS>SUBSTRUCTURE
     1 MOL         1 TEMP              0 ****  ****    0 ROOT
