@<TRIPOS>MOLECULE
MOL
  186   183     1     0     0
SMALL
resp


@<TRIPOS>ATOM
      1 C1         -0.8620    1.7380    7.0260 c3        1 MOL     -0.265627
      2 C2         -0.9280    1.7680    5.4780 c         1 MOL      0.771285
      3 O1          0.1320    1.8070    4.8310 o         1 MOL     -0.608037
      4 H1         -1.5430    2.4850    7.4330 hc        1 MOL      0.068116
      5 H2         -1.1500    0.7510    7.3840 hc        1 MOL      0.068116
      6 H3          0.1550    1.9600    7.3510 hc        1 MOL      0.068116
      7 N1         -2.1350    1.8040    4.8390 n         1 MOL     -0.732068
      8 C3         -2.3150    1.8910    3.4150 c3        1 MOL      0.156168
      9 C4         -1.9280    3.3220    2.8290 c         1 MOL      0.705264
     10 O2         -2.3320    4.2760    3.4960 o         1 MOL     -0.581811
     11 C5         -3.7610    1.4770    3.0860 c3        1 MOL     -0.318714
     12 C6         -3.7390    1.0070    1.6080 c         1 MOL      0.709144
     13 O3         -3.7920   -0.1900    1.2740 o         1 MOL     -0.726181
     14 O4         -3.4170    1.7570    0.6980 o         1 MOL     -0.726181
     15 H4         -2.9700    1.9310    5.3860 hn        1 MOL      0.355365
     16 H5         -1.6730    1.1650    2.9070 h1        1 MOL      0.047297
     17 H6         -4.4920    2.2770    3.2370 hc        1 MOL      0.100626
     18 H7         -4.0200    0.6150    3.7040 hc        1 MOL      0.100626
     19 N2         -1.2560    3.4340    1.6580 n         1 MOL     -0.505943
     20 C7         -0.9000    4.6880    0.9170 c3        1 MOL     -0.117091
     21 C8         -2.0100    5.1800    0.0070 c         1 MOL      0.614967
     22 O5         -2.1210    6.3140   -0.4050 o         1 MOL     -0.602774
     23 C9          0.4020    4.4700    0.1570 c3        1 MOL      0.338535
     24 C10         1.2020    5.6610   -0.3450 c3        1 MOL     -0.500994
     25 C11         2.3570    5.1770   -1.2120 c3        1 MOL      0.250143
     26 C12         3.0510    6.3450   -1.8470 c3        1 MOL      0.035953
     27 N3          4.0320    5.8660   -2.7770 n4        1 MOL     -0.227322
     28 H8         -1.0080    2.5270    1.2850 hn        1 MOL      0.189178
     29 H9         -0.8220    5.4990    1.6370 h1        1 MOL      0.087141
     30 H10         0.1310    3.8670   -0.7100 hc        1 MOL      0.008326
     31 H11         1.0540    3.8190    0.7310 hc        1 MOL      0.008326
     32 H12         1.5740    6.2030    0.5240 hc        1 MOL      0.127182
     33 H13         0.5910    6.2690   -1.0100 hc        1 MOL      0.127182
     34 H14         1.8990    4.5520   -1.9820 hc        1 MOL     -0.038952
     35 H15         3.0650    4.5280   -0.7060 hc        1 MOL     -0.038952
     36 H16         3.6160    6.7140   -0.9970 hx        1 MOL      0.067085
     37 H17         2.4050    7.1030   -2.2950 hx        1 MOL      0.067085
     38 H18         4.7190    5.3670   -2.2350 hn        1 MOL      0.286125
     39 H19         3.6860    5.2540   -3.5130 hn        1 MOL      0.286125
     40 H20         4.5770    6.5550   -3.2680 hn        1 MOL      0.286125
     41 N4         -2.6860    4.2110   -0.6020 n         1 MOL     -0.341087
     42 C13        -3.6070    4.4730   -1.7690 c3        1 MOL      0.005417
     43 C14        -5.1180    4.0570   -1.5450 c         1 MOL      0.353968
     44 O6         -6.0430    4.4580   -2.2610 o         1 MOL     -0.530521
     45 C15        -3.0240    3.8440   -2.9870 c3        1 MOL     -0.139166
     46 C16        -2.7280    2.4070   -2.7590 c         1 MOL      0.752460
     47 O7         -3.6690    1.5430   -2.6470 o         1 MOL     -0.741060
     48 O8         -1.5540    2.0510   -2.4240 o         1 MOL     -0.741060
     49 H21        -2.5440    3.2420   -0.3320 hn        1 MOL      0.204970
     50 H22        -3.5590    5.5300   -1.9910 h1        1 MOL      0.126726
     51 H23        -2.1370    4.4300   -3.2190 hc        1 MOL      0.039995
     52 H24        -3.5910    4.0010   -3.9080 hc        1 MOL      0.039995
     53 N5         -5.3600    3.2390   -0.5380 n         1 MOL     -0.082597
     54 C17        -6.6320    2.7770    0.0450 c3        1 MOL     -0.242076
     55 C18        -7.1570    1.4800   -0.6480 c         1 MOL      0.646999
     56 O9         -8.3600    1.2890   -0.4940 o         1 MOL     -0.627479
     57 H25        -4.5490    2.8620   -0.0660 hn        1 MOL      0.106848
     58 H26        -7.3980    3.5260   -0.1620 h1        1 MOL      0.119351
     59 H27        -6.6010    2.5990    1.1220 h1        1 MOL      0.119351
     60 N6         -6.4180    0.6350   -1.3490 n         1 MOL     -0.329432
     61 C19        -6.9550   -0.4160   -2.2390 c3        1 MOL      0.071856
     62 C20        -7.2340   -1.7970   -1.5660 c         1 MOL      0.355946
     63 O10        -7.6770   -2.7500   -2.2260 o         1 MOL     -0.493466
     64 C21        -6.0600   -0.6500   -3.4860 c3        1 MOL     -0.363660
     65 C22        -4.7070   -1.1990   -3.1650 c         1 MOL      0.882710
     66 O11        -4.2660   -1.2750   -1.9750 o         1 MOL     -0.668838
     67 O12        -3.9750   -1.5490   -4.1150 o         1 MOL     -0.668838
     68 H28        -5.4330    0.8770   -1.4220 hn        1 MOL      0.216065
     69 H29        -7.9210   -0.0860   -2.6040 h1        1 MOL      0.106459
     70 H30        -5.9820    0.3230   -3.9560 hc        1 MOL      0.110701
     71 H31        -6.6340   -1.3430   -4.1070 hc        1 MOL      0.110701
     72 N7         -7.0080   -1.8860   -0.2410 n         1 MOL     -0.210982
     73 C23        -7.2380   -3.1340    0.5720 c3        1 MOL     -0.203095
     74 C24        -6.0470   -4.0920    0.7860 c         1 MOL      0.488637
     75 O13        -6.2530   -5.1980    1.2510 o         1 MOL     -0.557747
     76 H32        -6.7890   -1.0660    0.2980 hn        1 MOL      0.237606
     77 H33        -8.1060   -3.7100    0.2380 h1        1 MOL      0.112600
     78 H34        -7.4330   -2.7190    1.5680 h1        1 MOL      0.112600
     79 N8         -4.9300   -3.7510    0.1940 n         1 MOL      0.103282
     80 C25        -3.6810   -4.4500    0.1970 c3        1 MOL     -0.691148
     81 C26        -2.4260   -3.5010    0.4550 c         1 MOL      1.091204
     82 O14        -2.3230   -2.4070   -0.0030 o         1 MOL     -0.857868
     83 C27        -3.4640   -5.2680   -1.0290 c3        1 MOL      0.611782
     84 C28        -4.4200   -6.4440   -1.1560 c3        1 MOL     -0.496404
     85 O15        -3.5400   -4.3610   -2.1220 oh        1 MOL     -0.675605
     86 H35        -4.9400   -2.9010   -0.3570 hn        1 MOL      0.026680
     87 H36        -3.7190   -5.2480    0.9360 h1        1 MOL      0.157117
     88 H37        -2.4630   -5.6870   -1.0200 h1        1 MOL     -0.020359
     89 H38        -4.2770   -3.7500   -1.9960 ho        1 MOL      0.408444
     90 H39        -4.3870   -7.1320   -0.3170 hc        1 MOL      0.128362
     91 H40        -5.4270   -6.1020   -1.3770 hc        1 MOL      0.128362
     92 H41        -4.2190   -7.0570   -2.0350 hc        1 MOL      0.128362
     93 N9         -1.4820   -4.0050    1.2630 n         1 MOL     -0.785511
     94 C29        -0.2380   -3.1620    1.5850 c3        1 MOL      0.373263
     95 C30         0.8170   -3.6020    0.5010 c         1 MOL      0.400232
     96 O16         0.9870   -4.7710    0.2980 o         1 MOL     -0.541621
     97 C31         0.1590   -3.3790    3.0630 c3        1 MOL     -0.017204
     98 C32        -0.8940   -2.7530    3.9730 c3        1 MOL     -0.057003
     99 C33         1.5400   -2.8900    3.4530 c3        1 MOL     -0.325308
    100 C34        -0.8570   -1.2170    4.0020 c3        1 MOL     -0.288396
    101 H42        -1.5390   -4.9900    1.4970 hn        1 MOL      0.340641
    102 H43        -0.4570   -2.0930    1.4910 h1        1 MOL      0.144933
    103 H44         0.1130   -4.4610    3.1620 hc        1 MOL      0.017134
    104 H45        -0.6870   -3.0880    4.9940 hc        1 MOL      0.031724
    105 H46        -1.9320   -3.0070    3.7540 hc        1 MOL      0.031724
    106 H47         1.6350   -1.8050    3.5710 hc        1 MOL      0.077897
    107 H48         1.7730   -3.3100    4.4250 hc        1 MOL      0.077897
    108 H49         2.2720   -3.1720    2.7020 hc        1 MOL      0.077897
    109 H50        -0.2250   -0.9570    4.8530 hc        1 MOL      0.112847
    110 H51        -0.4610   -0.8480    3.0640 hc        1 MOL      0.112847
    111 H52        -1.8350   -0.7850    4.2150 hc        1 MOL      0.112847
    112 N10         1.6650   -2.6760   -0.0340 n         1 MOL      0.216413
    113 C35         2.7940   -2.9980   -0.8700 c3        1 MOL     -0.277991
    114 C36         4.2120   -2.5230   -0.3940 c         1 MOL      0.564805
    115 O17         4.3860   -2.1670    0.7340 o         1 MOL     -0.363492
    116 C37         2.5310   -2.5840   -2.3240 c3        1 MOL      0.395195
    117 C38         1.2210   -2.9200   -2.9690 c3        1 MOL     -0.427161
    118 O18         2.5890   -1.1440   -2.4200 oh        1 MOL     -0.688088
    119 H53         1.3760   -1.7060   -0.0260 hn        1 MOL     -0.290821
    120 H54         2.8840   -4.0870   -0.9140 h1        1 MOL      0.101929
    121 H55         3.2770   -3.0610   -2.9560 h1        1 MOL      0.002555
    122 H56         1.7130   -0.8800   -2.1530 ho        1 MOL      0.449968
    123 H57         0.3850   -2.3470   -2.5600 hc        1 MOL      0.118275
    124 H58         1.3180   -2.7360   -4.0370 hc        1 MOL      0.118275
    125 H59         1.0000   -3.9750   -2.8020 hc        1 MOL      0.118275
    126 N11         5.3420   -2.5880   -1.2160 n         1 MOL     -0.484812
    127 C39         6.7400   -2.6620   -0.7250 c3        1 MOL     -0.091474
    128 C40         7.1320   -1.3860    0.0280 c         1 MOL      0.142531
    129 O19         7.6840   -1.3850    1.1350 o         1 MOL     -0.412497
    130 C41         7.7270   -2.9630   -1.8970 c3        1 MOL      0.512623
    131 C42         9.0650   -3.4120   -1.3240 c3        1 MOL     -0.522685
    132 O20         7.2520   -4.0110   -2.6880 oh        1 MOL     -0.582566
    133 H60         5.2540   -2.7960   -2.2040 hn        1 MOL      0.234099
    134 H61         6.6890   -3.5500   -0.1060 h1        1 MOL      0.168415
    135 H62         7.9270   -2.1400   -2.5730 h1        1 MOL     -0.079042
    136 H63         6.8720   -3.5870   -3.4540 ho        1 MOL      0.381565
    137 H64         9.6170   -2.6640   -0.7570 hc        1 MOL      0.144485
    138 H65         8.9310   -4.2130   -0.5960 hc        1 MOL      0.144485
    139 H66         9.6260   -3.7980   -2.1820 hc        1 MOL      0.144485
    140 N12         6.6490   -0.2620   -0.5470 n         1 MOL     -0.071962
    141 C43         6.8830    1.0920   -0.0480 c3        1 MOL     -0.067191
    142 C44         5.9580    1.4260    1.1380 c         1 MOL      0.332699
    143 O21         6.2830    2.1830    2.0560 o         1 MOL     -0.496578
    144 C45         6.7330    2.1000   -1.2290 c3        1 MOL      0.021558
    145 C46         7.4590    1.7810   -2.5050 c3        1 MOL     -0.064583
    146 C47         9.0040    1.6820   -2.2890 c3        1 MOL     -0.185585
    147 C48         9.5910    0.8600   -3.4390 c3        1 MOL      0.007472
    148 N13        11.0620    0.7110   -3.3360 n4        1 MOL     -0.316176
    149 H67         6.2520   -0.3280   -1.4700 hn        1 MOL      0.198102
    150 H68         7.8840    1.2200    0.3570 h1        1 MOL      0.088629
    151 H69         7.2610    2.9990   -0.9300 hc        1 MOL      0.011439
    152 H70         5.6860    2.4250   -1.2510 hc        1 MOL      0.011439
    153 H71         7.1860    2.5930   -3.1760 hc        1 MOL      0.026906
    154 H72         7.0700    0.8430   -2.9150 hc        1 MOL      0.026906
    155 H73         9.2300    1.2760   -1.3020 hc        1 MOL      0.110856
    156 H74         9.4160    2.6910   -2.3220 hc        1 MOL      0.110856
    157 H75         9.3930    1.2770   -4.4260 hx        1 MOL      0.097111
    158 H76         9.1270   -0.1170   -3.6010 hx        1 MOL      0.097111
    159 H77        11.2470    0.0540   -2.5980 hn        1 MOL      0.282850
    160 H78        11.4480    0.2750   -4.1700 hn        1 MOL      0.282850
    161 H79        11.4730    1.6070   -3.1400 hn        1 MOL      0.282850
    162 N14         4.8050    0.7360    1.1460 n         1 MOL     -0.095611
    163 C49         3.8820    0.8120    2.2540 c3        1 MOL     -0.235821
    164 C50         4.3010   -0.0130    3.4720 c         1 MOL      0.502312
    165 O22         3.8080    0.2780    4.5890 o         1 MOL     -0.525264
    166 C51         2.5330    0.3580    1.7030 c3        1 MOL      0.520343
    167 C52         2.1200    0.9930    0.3850 c3        1 MOL     -0.144067
    168 C53         0.6690    0.5610    0.1040 c         1 MOL      0.671472
    169 O23         0.5310   -0.2750   -0.8480 o         1 MOL     -0.623676
    170 O24        -0.3620    1.0530    0.5720 o         1 MOL     -0.623676
    171 H80         4.6920    0.1150    0.3620 hn        1 MOL      0.140002
    172 H81         3.7710    1.8310    2.6360 h1        1 MOL      0.132478
    173 H82         1.7650    0.6250    2.4220 hc        1 MOL     -0.101514
    174 H83         2.5470   -0.7260    1.5530 hc        1 MOL     -0.101514
    175 H84         2.7500    0.6970   -0.4540 hc        1 MOL     -0.033138
    176 H85         2.1380    2.0790    0.5010 hc        1 MOL     -0.033138
    177 N15         5.0840   -1.1200    3.3490 n         1 MOL     -0.256140
    178 C54         5.4310   -2.0230    4.4050 c3        1 MOL     -0.302682
    179 H86         6.3410   -2.5610    4.1380 h1        1 MOL      0.122268
    180 H87         5.5970   -1.4610    5.3240 h1        1 MOL      0.122268
    181 H88         4.6200   -2.7360    4.5560 h1        1 MOL      0.122268
    182 H89         5.3060   -1.4200    2.4160 hn        1 MOL      0.259468
    183 Ca1        -2.3150   -0.0010   -0.9380 Ca        1 MOL      1.761709
    184 O25        -1.5460   -0.8890   -3.2200 oh        1 MOL     -0.874344
    185 H90        -1.1150   -1.6930   -3.4970 ho        1 MOL      0.405913
    186 H91        -2.4570   -1.0080   -3.4740 ho        1 MOL      0.405913
@<TRIPOS>BOND
     1    1    2 1   
     2    1    4 1   
     3    1    5 1   
     4    1    6 1   
     5    2    3 2   
     6    2    7 1   
     7    7    8 1   
     8    7   15 1   
     9    8    9 1   
    10    8   11 1   
    11    8   16 1   
    12    9   10 2   
    13    9   19 1   
    14   11   12 1   
    15   11   17 1   
    16   11   18 1   
    17   12   13 1   
    18   12   14 1   
    19   19   20 1   
    20   19   28 1   
    21   20   21 1   
    22   20   23 1   
    23   20   29 1   
    24   21   22 2   
    25   21   41 1   
    26   23   24 1   
    27   23   30 1   
    28   23   31 1   
    29   24   25 1   
    30   24   32 1   
    31   24   33 1   
    32   25   26 1   
    33   25   34 1   
    34   25   35 1   
    35   26   27 1   
    36   26   36 1   
    37   26   37 1   
    38   27   38 1   
    39   27   39 1   
    40   27   40 1   
    41   41   42 1   
    42   41   49 1   
    43   42   43 1   
    44   42   45 1   
    45   42   50 1   
    46   43   44 2   
    47   43   53 1   
    48   45   46 1   
    49   45   51 1   
    50   45   52 1   
    51   46   47 1   
    52   46   48 1   
    53   53   54 1   
    54   53   57 1   
    55   54   55 1   
    56   54   58 1   
    57   54   59 1   
    58   55   56 2   
    59   55   60 1   
    60   60   61 1   
    61   60   68 1   
    62   61   62 1   
    63   61   64 1   
    64   61   69 1   
    65   62   63 2   
    66   62   72 1   
    67   64   65 1   
    68   64   70 1   
    69   64   71 1   
    70   65   66 1   
    71   65   67 1   
    72   72   73 1   
    73   72   76 1   
    74   73   74 1   
    75   73   77 1   
    76   73   78 1   
    77   74   75 2   
    78   74   79 1   
    79   79   80 1   
    80   79   86 1   
    81   80   81 1   
    82   80   83 1   
    83   80   87 1   
    84   81   82 2   
    85   81   93 1   
    86   83   84 1   
    87   83   85 1   
    88   83   88 1   
    89   84   90 1   
    90   84   91 1   
    91   84   92 1   
    92   85   89 1   
    93   93   94 1   
    94   93  101 1   
    95   94   95 1   
    96   94   97 1   
    97   94  102 1   
    98   95   96 2   
    99   95  112 1   
   100   97   98 1   
   101   97   99 1   
   102   97  103 1   
   103   98  100 1   
   104   98  104 1   
   105   98  105 1   
   106   99  106 1   
   107   99  107 1   
   108   99  108 1   
   109  100  109 1   
   110  100  110 1   
   111  100  111 1   
   112  112  113 1   
   113  112  119 1   
   114  113  114 1   
   115  113  116 1   
   116  113  120 1   
   117  114  115 2   
   118  114  126 1   
   119  116  117 1   
   120  116  118 1   
   121  116  121 1   
   122  117  123 1   
   123  117  124 1   
   124  117  125 1   
   125  118  122 1   
   126  126  127 1   
   127  126  133 1   
   128  127  128 1   
   129  127  130 1   
   130  127  134 1   
   131  128  129 2   
   132  128  140 1   
   133  130  131 1   
   134  130  132 1   
   135  130  135 1   
   136  131  137 1   
   137  131  138 1   
   138  131  139 1   
   139  132  136 1   
   140  140  141 1   
   141  140  149 1   
   142  141  142 1   
   143  141  144 1   
   144  141  150 1   
   145  142  143 2   
   146  142  162 1   
   147  144  145 1   
   148  144  151 1   
   149  144  152 1   
   150  145  146 1   
   151  145  153 1   
   152  145  154 1   
   153  146  147 1   
   154  146  155 1   
   155  146  156 1   
   156  147  148 1   
   157  147  157 1   
   158  147  158 1   
   159  148  159 1   
   160  148  160 1   
   161  148  161 1   
   162  162  163 1   
   163  162  171 1   
   164  163  164 1   
   165  163  166 1   
   166  163  172 1   
   167  164  165 2   
   168  164  177 1   
   169  166  167 1   
   170  166  173 1   
   171  166  174 1   
   172  167  168 1   
   173  167  175 1   
   174  167  176 1   
   175  168  169 1   
   176  168  170 1   
   177  177  178 1   
   178  177  182 1   
   179  178  179 1   
   180  178  180 1   
   181  178  181 1   
   182  184  185 1   
   183  184  186 1   
@<TRIPOS>SUBSTRUCTURE
     1 MOL         1 TEMP              0 ****  ****    0 ROOT
