@<TRIPOS>MOLECULE
MOL
  189   185     1     0     0
SMALL
resp


@<TRIPOS>ATOM
      1 C1          0.0290    1.6720    6.3420 c3        1 MOL     -0.311995
      2 C2         -0.4220    1.6000    4.8620 c         1 MOL      0.696112
      3 O1          0.3970    1.9020    3.9520 o         1 MOL     -0.632419
      4 H1         -0.8340    1.8740    6.9750 hc        1 MOL      0.083633
      5 H2          0.4770    0.7210    6.6330 hc        1 MOL      0.083633
      6 H3          0.7620    2.4700    6.4610 hc        1 MOL      0.083633
      7 N1         -1.6430    1.1960    4.5220 n         1 MOL     -0.533588
      8 C3         -2.2730    1.1730    3.2180 c3        1 MOL      0.091759
      9 C4         -2.6260    2.6050    2.8120 c         1 MOL      0.445792
     10 O2         -3.5530    3.1940    3.3800 o         1 MOL     -0.533091
     11 C5         -3.5770    0.4030    3.1660 c3        1 MOL     -0.277906
     12 C6         -4.1800    0.3310    1.7780 c         1 MOL      0.816095
     13 O3         -5.2900   -0.1010    1.6870 o         1 MOL     -0.687325
     14 O4         -3.5930    0.6200    0.7510 o         1 MOL     -0.687325
     15 H4         -2.2340    0.8520    5.2660 hn        1 MOL      0.309772
     16 H5         -1.5460    0.7300    2.5380 h1        1 MOL      0.049399
     17 H6         -4.3750    0.7480    3.8240 hc        1 MOL      0.066856
     18 H7         -3.2670   -0.6180    3.4090 hc        1 MOL      0.066856
     19 N2         -1.9710    3.1920    1.7500 n         1 MOL     -0.120997
     20 C7         -1.9870    4.7050    1.5410 c3        1 MOL     -0.055833
     21 C8         -3.1410    5.1800    0.6430 c         1 MOL      0.559213
     22 O5         -3.3900    6.3910    0.5820 o         1 MOL     -0.546271
     23 C9         -0.6380    5.1450    0.9150 c3        1 MOL     -0.234662
     24 C10        -0.4670    4.6170   -0.6470 c3        1 MOL      0.047935
     25 C11         0.9420    4.8790   -1.2210 c3        1 MOL     -0.448484
     26 C12         1.2840    4.0700   -2.5380 c3        1 MOL      0.091606
     27 N3          0.5130    4.5140   -3.6740 n4        1 MOL     -0.278784
     28 H8         -1.1720    2.6400    1.4680 hn        1 MOL      0.169422
     29 H9         -2.1170    5.1700    2.5180 h1        1 MOL      0.099542
     30 H10         0.1360    4.6250    1.4620 hc        1 MOL      0.107932
     31 H11        -0.5270    6.2300    0.8440 hc        1 MOL      0.107932
     32 H12        -1.1890    4.9590   -1.3820 hc        1 MOL      0.068000
     33 H13        -0.5250    3.5350   -0.5050 hc        1 MOL      0.068000
     34 H14         1.6290    4.6490   -0.4090 hc        1 MOL      0.135921
     35 H15         1.0040    5.9230   -1.5250 hc        1 MOL      0.135921
     36 H16         1.0850    3.0090   -2.4240 hx        1 MOL      0.038267
     37 H17         2.3150    4.3050   -2.7890 hx        1 MOL      0.038267
     38 H18         0.6950    5.5100   -3.7520 hn        1 MOL      0.295762
     39 H19         0.7140    4.0870   -4.5690 hn        1 MOL      0.295762
     40 H20        -0.4550    4.4400   -3.4090 hn        1 MOL      0.295762
     41 N4         -3.7960    4.2070   -0.0140 n         1 MOL     -0.500047
     42 C13        -4.6820    4.3570   -1.1760 c3        1 MOL      0.269209
     43 C14        -5.8830    3.2870   -1.2100 c         1 MOL      0.399273
     44 O6         -6.5730    3.1770   -2.2770 o         1 MOL     -0.503390
     45 C15        -3.9590    4.4190   -2.5030 c3        1 MOL     -0.395983
     46 C16        -2.9960    3.1740   -2.6860 c         1 MOL      1.078631
     47 O7         -1.9550    3.4170   -3.3920 o         1 MOL     -0.874134
     48 O8         -3.1070    2.1410   -2.0720 o         1 MOL     -0.874134
     49 H21        -3.6910    3.2490    0.2660 hn        1 MOL      0.122231
     50 H22        -5.2300    5.2970   -1.0640 h1        1 MOL      0.054735
     51 H23        -3.4070    5.3450   -2.4210 hc        1 MOL      0.083560
     52 H24        -4.6760    4.4520   -3.3250 hc        1 MOL      0.083560
     53 N5         -6.2340    2.6890   -0.1120 n         1 MOL     -0.350933
     54 C17        -7.5380    2.0720    0.0850 c3        1 MOL     -0.145124
     55 C18        -7.8350    0.7790   -0.7340 c         1 MOL      0.479945
     56 O9         -8.9480    0.4750   -1.0870 o         1 MOL     -0.572901
     57 H25        -5.7120    2.8580    0.7450 hn        1 MOL      0.322716
     58 H26        -8.3320    2.8000   -0.0510 h1        1 MOL      0.101331
     59 H27        -7.5220    1.7770    1.1290 h1        1 MOL      0.101331
     60 N6         -6.8180    0.0370   -1.0820 n         1 MOL     -0.122552
     61 C19        -6.9140   -1.2280   -1.7420 c3        1 MOL      0.006408
     62 C20        -6.8500   -2.3850   -0.7380 c         1 MOL      0.309132
     63 O10        -7.0840   -3.5380   -1.2050 o         1 MOL     -0.495069
     64 C21        -5.9010   -1.3780   -2.9250 c3        1 MOL     -0.399917
     65 C22        -4.4600   -1.3500   -2.5460 c         1 MOL      0.883443
     66 O11        -4.0420   -1.5590   -1.3900 o         1 MOL     -0.790733
     67 O12        -3.5790   -1.0090   -3.3870 o         1 MOL     -0.790733
     68 H28        -5.9330    0.1720   -0.6160 hn        1 MOL      0.192439
     69 H29        -7.9190   -1.2970   -2.1820 h1        1 MOL      0.132152
     70 H30        -6.0930   -0.6010   -3.6700 hc        1 MOL      0.120047
     71 H31        -6.0640   -2.3950   -3.2970 hc        1 MOL      0.120047
     72 N7         -6.7710   -2.1560    0.5530 n         1 MOL     -0.206274
     73 C23        -6.6900   -3.2850    1.5150 c3        1 MOL     -0.087739
     74 C24        -5.4460   -4.1500    1.3330 c         1 MOL      0.622429
     75 O13        -5.5150   -5.2940    1.7590 o         1 MOL     -0.580769
     76 H32        -6.5660   -1.2200    0.8830 hn        1 MOL      0.223681
     77 H33        -7.5460   -3.9550    1.5130 h1        1 MOL      0.064836
     78 H34        -6.5020   -2.7660    2.4470 h1        1 MOL      0.064836
     79 N8         -4.3300   -3.5770    0.7840 n         1 MOL     -0.388253
     80 C25        -3.0470   -4.2280    0.5960 c3        1 MOL      0.026061
     81 C26        -1.9140   -3.1790    0.7100 c         1 MOL      0.418115
     82 O14        -2.0500   -1.9840    0.6330 o         1 MOL     -0.511421
     83 C27        -2.9660   -4.8580   -0.8550 c3        1 MOL      0.511376
     84 C28        -3.3660   -6.3320   -0.9300 c3        1 MOL     -0.386627
     85 O15        -3.7950   -4.2620   -1.8490 oh        1 MOL     -0.619027
     86 H35        -4.4620   -2.6890    0.3350 hn        1 MOL      0.225979
     87 H36        -2.8380   -5.0610    1.2690 h1        1 MOL      0.049615
     88 H37        -1.9600   -4.6890   -1.2200 h1        1 MOL     -0.089140
     89 H38        -3.6510   -3.3200   -1.7670 ho        1 MOL      0.402762
     90 H39        -3.4800   -6.5930   -1.9790 hc        1 MOL      0.091384
     91 H40        -2.5850   -6.9530   -0.4940 hc        1 MOL      0.091384
     92 H41        -4.2750   -6.4400   -0.3380 hc        1 MOL      0.091384
     93 N9         -0.6840   -3.6940    0.8760 n         1 MOL     -0.506266
     94 C29         0.6040   -2.9230    1.1150 c3        1 MOL     -0.057686
     95 C30         1.6270   -3.4660    0.1470 c         1 MOL      0.489745
     96 O16         2.0690   -4.5690    0.1690 o         1 MOL     -0.543486
     97 C31         0.9590   -3.1770    2.5900 c3        1 MOL     -0.034751
     98 C32        -0.0670   -2.4370    3.5160 c3        1 MOL      0.027024
     99 C33         2.4520   -2.8840    2.9000 c3        1 MOL     -0.062887
    100 C34         0.1480   -2.8010    5.0220 c3        1 MOL     -0.189072
    101 H42        -0.6830   -4.6810    1.0600 hn        1 MOL      0.296234
    102 H43         0.4040   -1.8710    0.9250 h1        1 MOL      0.059232
    103 H44         0.9320   -4.2480    2.7810 hc        1 MOL      0.055857
    104 H45        -1.0690   -2.8450    3.3540 hc        1 MOL      0.062033
    105 H46        -0.0610   -1.3630    3.3850 hc        1 MOL      0.062033
    106 H47         2.6460   -1.8310    2.6850 hc        1 MOL      0.032202
    107 H48         2.6660   -3.0980    3.9420 hc        1 MOL      0.032202
    108 H49         3.1830   -3.5440    2.4430 hc        1 MOL      0.032202
    109 H50         0.0330   -3.8770    5.1790 hc        1 MOL      0.038880
    110 H51         1.0950   -2.4700    5.4400 hc        1 MOL      0.038880
    111 H52        -0.6220   -2.2010    5.5170 hc        1 MOL      0.038880
    112 N10         2.1060   -2.5950   -0.6860 n         1 MOL     -0.089822
    113 C35         3.2810   -2.8650   -1.5530 c3        1 MOL     -0.437705
    114 C36         4.6010   -2.7650   -0.8670 c         1 MOL      0.712940
    115 O17         4.7050   -2.1310    0.1710 o         1 MOL     -0.545885
    116 C37         3.2440   -1.9450   -2.8050 c3        1 MOL      0.444092
    117 C38         2.1000   -2.3030   -3.8460 c3        1 MOL     -0.267164
    118 O18         2.9690   -0.5650   -2.3940 oh        1 MOL     -0.653265
    119 H53         1.6700   -1.6820   -0.6330 hn        1 MOL      0.201558
    120 H54         3.2490   -3.8730   -1.9700 h1        1 MOL      0.148747
    121 H55         4.1750   -2.0590   -3.3470 h1        1 MOL     -0.022037
    122 H56         2.0280   -0.4020   -2.3300 ho        1 MOL      0.353162
    123 H57         1.9740   -1.4000   -4.4470 hc        1 MOL      0.069277
    124 H58         2.4610   -3.0530   -4.5490 hc        1 MOL      0.069277
    125 H59         1.1070   -2.5760   -3.4870 hc        1 MOL      0.069277
    126 N11         5.7340   -3.1210   -1.5480 n         1 MOL     -0.468642
    127 C39         7.1060   -2.9260   -1.0600 c3        1 MOL      0.054978
    128 C40         7.5960   -1.5340   -0.6950 c         1 MOL      0.411247
    129 O19         8.4140   -1.4870    0.2110 o         1 MOL     -0.498971
    130 C41         8.0600   -3.5070   -2.1340 c3        1 MOL      0.380516
    131 C42         9.3090   -4.0480   -1.4510 c3        1 MOL     -0.319149
    132 O20         7.5910   -4.6560   -2.8850 oh        1 MOL     -0.643328
    133 H60         5.6080   -3.8380   -2.2480 hn        1 MOL      0.271735
    134 H61         7.1570   -3.5070   -0.1380 h1        1 MOL      0.106707
    135 H62         8.3660   -2.6560   -2.7460 h1        1 MOL     -0.036614
    136 H63         8.2760   -5.0680   -3.4210 ho        1 MOL      0.419824
    137 H64         9.8760   -3.2590   -0.9520 hc        1 MOL      0.084680
    138 H65         9.0600   -4.9090   -0.8410 hc        1 MOL      0.084680
    139 H66         9.9590   -4.3520   -2.2730 hc        1 MOL      0.084680
    140 N12         7.1640   -0.3620   -1.2330 n         1 MOL     -0.322456
    141 C43         7.2630    1.0020   -0.6730 c3        1 MOL     -0.007551
    142 C44         6.3330    1.3510    0.4550 c         1 MOL      0.499746
    143 O21         6.7730    2.0190    1.3580 o         1 MOL     -0.526059
    144 C45         7.0130    2.0620   -1.7100 c3        1 MOL     -0.025337
    145 C46         7.2000    3.5380   -1.2650 c3        1 MOL     -0.090749
    146 C47         8.7100    3.7080   -1.0210 c3        1 MOL     -0.194846
    147 C48         8.8040    5.0940   -0.3930 c3        1 MOL      0.107692
    148 N13        10.1300    5.2850    0.1970 n4        1 MOL     -0.434199
    149 H67         6.7130   -0.4330   -2.1360 hn        1 MOL      0.229120
    150 H68         8.2440    1.1430   -0.2160 h1        1 MOL      0.078816
    151 H69         5.9940    2.1120   -2.0930 hc        1 MOL      0.027697
    152 H70         7.5800    1.7830   -2.6000 hc        1 MOL      0.027697
    153 H71         6.6250    3.8520   -0.3930 hc        1 MOL      0.073321
    154 H72         6.8740    4.2250   -2.0540 hc        1 MOL      0.073321
    155 H73         9.2150    3.5870   -1.9780 hc        1 MOL      0.090212
    156 H74         9.1060    3.0950   -0.2120 hc        1 MOL      0.090212
    157 H75         8.0650    5.0890    0.4060 hx        1 MOL      0.080166
    158 H76         8.4880    5.8980   -1.0730 hx        1 MOL      0.080166
    159 H77        10.8880    5.2700   -0.4740 hn        1 MOL      0.349277
    160 H78        10.1690    6.1830    0.6660 hn        1 MOL      0.349277
    161 H79        10.2520    4.5130    0.8290 hn        1 MOL      0.349277
    162 N14         5.1190    0.8590    0.4070 n         1 MOL     -0.354501
    163 C49         4.2340    1.0490    1.5630 c3        1 MOL     -0.125009
    164 C50         4.6910    0.3050    2.8230 c         1 MOL      0.407264
    165 O22         4.5060    0.7910    3.9120 o         1 MOL     -0.507375
    166 C51         2.8560    0.5390    1.1580 c3        1 MOL      0.154294
    167 C52         2.0210    1.4680    0.2730 c3        1 MOL      0.014324
    168 C53         0.7040    0.7430   -0.0860 c         1 MOL      0.960751
    169 O23         0.6800   -0.2290   -0.8570 o         1 MOL     -0.845993
    170 O24        -0.3620    1.2300    0.2840 o         1 MOL     -0.845993
    171 H80         4.8690    0.2060   -0.3120 hn        1 MOL      0.242360
    172 H81         4.1500    2.1130    1.7860 h1        1 MOL      0.104411
    173 H82         2.2420    0.3670    2.0450 hc        1 MOL      0.011003
    174 H83         2.9390   -0.4660    0.7380 hc        1 MOL      0.011003
    175 H84         2.5460    1.5220   -0.6880 hc        1 MOL     -0.028681
    176 H85         1.9110    2.4450    0.7200 hc        1 MOL     -0.028681
    177 N15         5.2360   -0.8670    2.5100 n         1 MOL     -0.037596
    178 C54         5.8220   -1.7470    3.5390 c3        1 MOL     -0.257639
    179 H86         5.3100   -1.5870    4.4870 h1        1 MOL      0.092956
    180 H87         5.7070   -2.7870    3.2360 h1        1 MOL      0.092956
    181 H88         6.8810   -1.5160    3.6550 h1        1 MOL      0.092956
    182 H89         5.5110   -1.0660    1.5560 hn        1 MOL      0.193050
    183 Ca1        -1.9810   -0.0290   -1.2050 Ca        1 MOL      1.864221
    184 O25        -0.9910    0.7470   -3.4570 oh        1 MOL     -0.818708
    185 H90        -0.8950    0.3800   -4.3410 ho        1 MOL      0.401812
    186 H91        -1.1900    1.6720   -3.6020 ho        1 MOL      0.401812
    187 O26        -1.0470   -2.2710   -2.2280 oh        1 MOL     -0.818708
    188 H92        -1.2500   -2.4100   -3.1540 ho        1 MOL      0.401812
    189 H93        -0.0970   -2.3880   -2.1640 ho        1 MOL      0.401812
@<TRIPOS>BOND
     1    1    2 1   
     2    1    4 1   
     3    1    5 1   
     4    1    6 1   
     5    2    3 2   
     6    2    7 1   
     7    7    8 1   
     8    7   15 1   
     9    8    9 1   
    10    8   11 1   
    11    8   16 1   
    12    9   10 2   
    13    9   19 1   
    14   11   12 1   
    15   11   17 1   
    16   11   18 1   
    17   12   13 1   
    18   12   14 1   
    19   19   20 1   
    20   19   28 1   
    21   20   21 1   
    22   20   23 1   
    23   20   29 1   
    24   21   22 2   
    25   21   41 1   
    26   23   24 1   
    27   23   30 1   
    28   23   31 1   
    29   24   25 1   
    30   24   32 1   
    31   24   33 1   
    32   25   26 1   
    33   25   34 1   
    34   25   35 1   
    35   26   27 1   
    36   26   36 1   
    37   26   37 1   
    38   27   38 1   
    39   27   39 1   
    40   27   40 1   
    41   41   42 1   
    42   41   49 1   
    43   42   43 1   
    44   42   45 1   
    45   42   50 1   
    46   43   44 2   
    47   43   53 1   
    48   45   46 1   
    49   45   51 1   
    50   45   52 1   
    51   46   47 1   
    52   46   48 1   
    53   53   54 1   
    54   53   57 1   
    55   54   55 1   
    56   54   58 1   
    57   54   59 1   
    58   55   56 2   
    59   55   60 1   
    60   60   61 1   
    61   60   68 1   
    62   61   62 1   
    63   61   64 1   
    64   61   69 1   
    65   62   63 2   
    66   62   72 1   
    67   64   65 1   
    68   64   70 1   
    69   64   71 1   
    70   65   66 1   
    71   65   67 1   
    72   72   73 1   
    73   72   76 1   
    74   73   74 1   
    75   73   77 1   
    76   73   78 1   
    77   74   75 2   
    78   74   79 1   
    79   79   80 1   
    80   79   86 1   
    81   80   81 1   
    82   80   83 1   
    83   80   87 1   
    84   81   82 2   
    85   81   93 1   
    86   83   84 1   
    87   83   85 1   
    88   83   88 1   
    89   84   90 1   
    90   84   91 1   
    91   84   92 1   
    92   85   89 1   
    93   93   94 1   
    94   93  101 1   
    95   94   95 1   
    96   94   97 1   
    97   94  102 1   
    98   95   96 2   
    99   95  112 1   
   100   97   98 1   
   101   97   99 1   
   102   97  103 1   
   103   98  100 1   
   104   98  104 1   
   105   98  105 1   
   106   99  106 1   
   107   99  107 1   
   108   99  108 1   
   109  100  109 1   
   110  100  110 1   
   111  100  111 1   
   112  112  113 1   
   113  112  119 1   
   114  113  114 1   
   115  113  116 1   
   116  113  120 1   
   117  114  115 2   
   118  114  126 1   
   119  116  117 1   
   120  116  118 1   
   121  116  121 1   
   122  117  123 1   
   123  117  124 1   
   124  117  125 1   
   125  118  122 1   
   126  126  127 1   
   127  126  133 1   
   128  127  128 1   
   129  127  130 1   
   130  127  134 1   
   131  128  129 2   
   132  128  140 1   
   133  130  131 1   
   134  130  132 1   
   135  130  135 1   
   136  131  137 1   
   137  131  138 1   
   138  131  139 1   
   139  132  136 1   
   140  140  141 1   
   141  140  149 1   
   142  141  142 1   
   143  141  144 1   
   144  141  150 1   
   145  142  143 2   
   146  142  162 1   
   147  144  145 1   
   148  144  151 1   
   149  144  152 1   
   150  145  146 1   
   151  145  153 1   
   152  145  154 1   
   153  146  147 1   
   154  146  155 1   
   155  146  156 1   
   156  147  148 1   
   157  147  157 1   
   158  147  158 1   
   159  148  159 1   
   160  148  160 1   
   161  148  161 1   
   162  162  163 1   
   163  162  171 1   
   164  163  164 1   
   165  163  166 1   
   166  163  172 1   
   167  164  165 2   
   168  164  177 1   
   169  166  167 1   
   170  166  173 1   
   171  166  174 1   
   172  167  168 1   
   173  167  175 1   
   174  167  176 1   
   175  168  169 1   
   176  168  170 1   
   177  177  178 1   
   178  177  182 1   
   179  178  179 1   
   180  178  180 1   
   181  178  181 1   
   182  184  185 1   
   183  184  186 1   
   184  187  188 1   
   185  187  189 1   
@<TRIPOS>SUBSTRUCTURE
     1 MOL         1 TEMP              0 ****  ****    0 ROOT
