@<TRIPOS>MOLECULE
MOL
  189   185     1     0     0
SMALL
resp


@<TRIPOS>ATOM
      1 C1          0.2010    3.0160   -5.0060 c3        1 MOL     -0.405945
      2 C2          0.7650    2.6740   -3.6150 c         1 MOL      0.638844
      3 O1          0.0860    3.0200   -2.6660 o         1 MOL     -0.561968
      4 H1         -0.6590    2.3790   -5.2150 hc        1 MOL      0.100385
      5 H2         -0.1080    4.0600   -5.0260 hc        1 MOL      0.100385
      6 H3          0.9690    2.8480   -5.7610 hc        1 MOL      0.100385
      7 N1          1.9180    2.1030   -3.5520 n         1 MOL     -0.490343
      8 C3          2.4690    1.6830   -2.2980 c3        1 MOL      0.102554
      9 C4          3.0890    2.8300   -1.4970 c         1 MOL      0.387397
     10 O2          4.2880    3.0110   -1.3960 o         1 MOL     -0.451730
     11 C5          3.4920    0.5390   -2.5300 c3        1 MOL      0.025708
     12 C6          4.2370    0.1830   -1.2130 c         1 MOL      0.399266
     13 O3          3.5820    0.4110   -0.1820 o         1 MOL     -0.506380
     14 O4          5.3490   -0.3840   -1.2080 o         1 MOL     -0.506380
     15 H4          2.4150    1.8690   -4.3940 hn        1 MOL      0.318554
     16 H5          1.7200    1.2990   -1.6100 h1        1 MOL      0.042386
     17 H6          4.2190    0.6900   -3.3370 hc        1 MOL     -0.003172
     18 H7          2.9080   -0.2950   -2.9200 hc        1 MOL     -0.003172
     19 N2          2.2320    3.6900   -0.8660 n         1 MOL     -0.251954
     20 C7          2.6680    5.0140   -0.3810 c3        1 MOL     -0.161957
     21 C8          3.4500    4.9500    0.9280 c         1 MOL      0.534729
     22 O5          4.3040    5.8230    1.1690 o         1 MOL     -0.555223
     23 C9          1.3340    5.8160   -0.1740 c3        1 MOL     -0.360879
     24 C10         0.6530    6.2390   -1.5080 c3        1 MOL      0.583733
     25 C11        -0.4700    7.3120   -1.4520 c3        1 MOL     -0.173030
     26 C12        -1.0640    7.7120   -2.8420 c3        1 MOL     -0.131320
     27 N3          0.0540    8.2820   -3.6780 n4        1 MOL     -0.338543
     28 H8          1.2460    3.4700   -0.8590 hn        1 MOL      0.274484
     29 H9          3.2380    5.5620   -1.1370 h1        1 MOL      0.129762
     30 H10         1.4720    6.7600    0.3570 hc        1 MOL      0.102526
     31 H11         0.6400    5.3120    0.4880 hc        1 MOL      0.102526
     32 H12         0.2920    5.3950   -2.0870 hc        1 MOL     -0.129965
     33 H13         1.4600    6.6650   -2.1040 hc        1 MOL     -0.129965
     34 H14        -0.1690    8.2410   -0.9530 hc        1 MOL      0.055307
     35 H15        -1.2420    6.9090   -0.7870 hc        1 MOL      0.055307
     36 H16        -1.7940    8.5220   -2.7810 hx        1 MOL      0.153809
     37 H17        -1.5440    6.8730   -3.3430 hx        1 MOL      0.153809
     38 H18         0.2850    9.1600   -3.2540 hn        1 MOL      0.318963
     39 H19         0.8540    7.6790   -3.7920 hn        1 MOL      0.318963
     40 H20        -0.2090    8.4800   -4.6350 hn        1 MOL      0.318963
     41 N4          3.3200    3.8870    1.8120 n         1 MOL     -0.293404
     42 C13         4.2070    3.7160    2.9860 c3        1 MOL      0.089902
     43 C14         5.4910    2.9890    2.6520 c         1 MOL      0.346100
     44 O6          6.5030    3.1000    3.4160 o         1 MOL     -0.535960
     45 C15         3.4460    3.0010    4.1300 c3        1 MOL     -0.441521
     46 C16         2.4690    1.9140    3.8000 c         1 MOL      0.908357
     47 O7          1.3440    1.8360    4.3620 o         1 MOL     -0.698831
     48 O8          2.8280    0.9270    3.1310 o         1 MOL     -0.698831
     49 H21         2.6770    3.1420    1.5990 hn        1 MOL      0.180933
     50 H22         4.4230    4.7300    3.3150 h1        1 MOL      0.108793
     51 H23         2.8170    3.7860    4.5440 hc        1 MOL      0.110740
     52 H24         4.1050    2.6490    4.9190 hc        1 MOL      0.110740
     53 N5          5.5390    2.1090    1.6310 n         1 MOL      0.064032
     54 C17         6.8180    1.5740    1.0520 c3        1 MOL     -0.163689
     55 C18         7.2710    0.3740    1.7540 c         1 MOL      0.652413
     56 O9          8.3540    0.3060    2.4020 o         1 MOL     -0.572379
     57 H25         4.7210    2.1290    1.0370 hn        1 MOL      0.057407
     58 H26         7.5860    2.3560    1.0650 h1        1 MOL      0.078886
     59 H27         6.6260    1.3140    0.0070 h1        1 MOL      0.078886
     60 N6          6.4270   -0.6850    1.5630 n         1 MOL     -0.394143
     61 C19         6.6490   -2.0360    2.0930 c3        1 MOL      0.016863
     62 C20         6.7250   -3.0660    0.9960 c         1 MOL      0.405288
     63 O10         6.8790   -4.2670    1.2650 o         1 MOL     -0.535308
     64 C21         5.5600   -2.4180    3.1070 c3        1 MOL     -0.143400
     65 C22         4.1580   -2.3980    2.5990 c         1 MOL      0.723896
     66 O11         3.9180   -2.7480    1.3970 o         1 MOL     -0.690647
     67 O12         3.2600   -2.0880    3.3740 o         1 MOL     -0.690647
     68 H28         5.7180   -0.5020    0.8570 hn        1 MOL     -0.012684
     69 H29         7.5600   -1.9330    2.6870 h1        1 MOL      0.112136
     70 H30         5.5760   -1.7430    3.9650 hc        1 MOL      0.064820
     71 H31         5.7620   -3.3900    3.5730 hc        1 MOL      0.064820
     72 N7          6.6730   -2.6830   -0.3050 n         1 MOL     -0.227405
     73 C23         6.6680   -3.5330   -1.4520 c3        1 MOL     -0.223623
     74 C24         5.3020   -4.1540   -1.8700 c         1 MOL      0.474924
     75 O13         5.1770   -5.0110   -2.7570 o         1 MOL     -0.589231
     76 H32         6.3970   -1.7290   -0.4800 hn        1 MOL      0.248908
     77 H33         7.2910   -4.3710   -1.1400 h1        1 MOL      0.120347
     78 H34         7.1010   -3.0640   -2.3370 h1        1 MOL      0.120347
     79 N8          4.2260   -3.8670   -1.1700 n         1 MOL     -0.049768
     80 C25         2.8500   -4.3900   -1.4570 c3        1 MOL     -0.134144
     81 C26         1.7600   -3.2650   -1.5060 c         1 MOL      0.608136
     82 O14         2.0330   -2.1810   -0.9400 o         1 MOL     -0.629214
     83 C27         2.4120   -5.4980   -0.4860 c3        1 MOL      0.477867
     84 C28         3.2040   -6.7650   -0.5360 c3        1 MOL     -0.440429
     85 O15         2.4390   -5.0500    0.8350 oh        1 MOL     -0.619177
     86 H35         4.3140   -3.2310   -0.3870 hn        1 MOL      0.128927
     87 H36         2.8950   -4.8550   -2.4350 h1        1 MOL      0.058292
     88 H37         1.4200   -5.7860   -0.8210 h1        1 MOL     -0.016478
     89 H38         3.2070   -4.4720    0.9090 ho        1 MOL      0.383391
     90 H39         3.5210   -7.1340   -1.5050 hc        1 MOL      0.108920
     91 H40         4.0670   -6.6880    0.1180 hc        1 MOL      0.108920
     92 H41         2.6090   -7.5380   -0.0500 hc        1 MOL      0.108920
     93 N9          0.5620   -3.5530   -2.0630 n         1 MOL     -0.606362
     94 C29        -0.4990   -2.4890   -2.2130 c3        1 MOL      0.024123
     95 C30        -1.8250   -3.0210   -1.5600 c         1 MOL      0.499922
     96 O16        -2.4100   -4.0100   -2.0310 o         1 MOL     -0.550366
     97 C31        -0.7170   -2.1850   -3.7130 c3        1 MOL      0.211348
     98 C32         0.6280   -1.7200   -4.4600 c3        1 MOL      0.050603
     99 C33        -1.8550   -1.1450   -3.9820 c3        1 MOL     -0.428972
    100 C34         0.5650   -1.8000   -5.9600 c3        1 MOL     -0.242564
    101 H42         0.4080   -4.4210   -2.5730 hn        1 MOL      0.327064
    102 H43        -0.2340   -1.5720   -1.6790 h1        1 MOL      0.095299
    103 H44        -1.0200   -3.1410   -4.1250 hc        1 MOL     -0.011367
    104 H45         1.4900   -2.2730   -4.0800 hc        1 MOL      0.023316
    105 H46         0.8510   -0.6940   -4.1790 hc        1 MOL      0.023316
    106 H47        -2.0910   -1.0540   -5.0390 hc        1 MOL      0.093288
    107 H48        -2.7620   -1.4120   -3.4250 hc        1 MOL      0.093288
    108 H49        -1.5000   -0.2030   -3.5590 hc        1 MOL      0.093288
    109 H50         1.4310   -1.3290   -6.4190 hc        1 MOL      0.054383
    110 H51         0.4140   -2.8320   -6.2900 hc        1 MOL      0.054383
    111 H52        -0.2890   -1.2660   -6.3700 hc        1 MOL      0.054383
    112 N10        -2.3490   -2.3600   -0.5060 n         1 MOL     -0.270887
    113 C35        -3.5490   -2.9050    0.1450 c3        1 MOL     -0.004289
    114 C36        -4.7510   -2.4150   -0.6230 c         1 MOL      0.295823
    115 O17        -4.6590   -1.4950   -1.4540 o         1 MOL     -0.205490
    116 C37        -3.5940   -2.4320    1.6020 c3        1 MOL      0.063867
    117 C38        -2.4220   -2.8610    2.4710 c3        1 MOL     -0.393408
    118 O18        -3.8140   -1.0430    1.7960 oh        1 MOL     -0.422745
    119 H53        -1.8430   -1.5950   -0.0780 hn        1 MOL      0.363172
    120 H54        -3.5220   -3.9860    0.1120 h1        1 MOL      0.108425
    121 H55        -4.4200   -2.9940    2.0350 h1        1 MOL      0.032029
    122 H56        -3.4510   -0.7790    2.6420 ho        1 MOL      0.378146
    123 H57        -2.1350   -3.9050    2.3420 hc        1 MOL      0.116730
    124 H58        -1.5880   -2.1900    2.2320 hc        1 MOL      0.116730
    125 H59        -2.6580   -2.6960    3.5230 hc        1 MOL      0.116730
    126 N11        -5.9870   -2.9310   -0.3490 n         1 MOL     -0.388022
    127 C39        -7.1760   -2.4010   -0.8890 c3        1 MOL      0.005843
    128 C40        -7.3930   -0.9310   -0.5690 c         1 MOL      0.353152
    129 O19        -7.9540   -0.1990   -1.3300 o         1 MOL     -0.479549
    130 C41        -8.4110   -3.1730   -0.5100 c3        1 MOL      0.394280
    131 C42        -8.4260   -4.6560   -0.8520 c3        1 MOL     -0.501263
    132 O20        -8.7920   -3.0680    0.8620 oh        1 MOL     -0.643933
    133 H60        -6.0260   -3.5550    0.4450 hn        1 MOL      0.287409
    134 H61        -7.1610   -2.4240   -1.9790 h1        1 MOL      0.107962
    135 H62        -9.2150   -2.6710   -1.0500 h1        1 MOL     -0.007642
    136 H63        -9.7240   -3.3090    0.8200 ho        1 MOL      0.396486
    137 H64        -9.3250   -5.0800   -0.4200 hc        1 MOL      0.135713
    138 H65        -8.3590   -4.7490   -1.9340 hc        1 MOL      0.135713
    139 H66        -7.6490   -5.1890   -0.3060 hc        1 MOL      0.135713
    140 N12        -6.8830   -0.4070    0.5880 n         1 MOL     -0.227675
    141 C43        -6.9380    0.9750    0.9970 c3        1 MOL     -0.072978
    142 C44        -5.8450    1.8750    0.3400 c         1 MOL      0.340875
    143 O21        -6.0450    3.0600    0.0030 o         1 MOL     -0.510895
    144 C45        -6.7780    1.1220    2.5280 c3        1 MOL     -0.063057
    145 C46        -8.1610    0.8580    3.2520 c3        1 MOL      0.179983
    146 C47        -8.0400    1.2070    4.7040 c3        1 MOL      0.036906
    147 C48        -9.4070    1.0030    5.3460 c3        1 MOL     -0.104027
    148 N13        -9.3120    1.2240    6.7710 n4        1 MOL     -0.070481
    149 H67        -6.4550   -1.0630    1.2250 hn        1 MOL      0.235768
    150 H68        -7.9420    1.3430    0.8150 h1        1 MOL      0.132533
    151 H69        -6.3480    2.1060    2.7360 hc        1 MOL     -0.001098
    152 H70        -6.0020    0.4040    2.8020 hc        1 MOL     -0.001098
    153 H71        -8.3390   -0.2080    3.0910 hc        1 MOL     -0.038127
    154 H72        -8.9880    1.4070    2.7960 hc        1 MOL     -0.038127
    155 H73        -7.7110    2.2310    4.8640 hc        1 MOL      0.016940
    156 H74        -7.2390    0.6310    5.1550 hc        1 MOL      0.016940
    157 H75        -9.6780   -0.0290    5.1570 hx        1 MOL      0.102536
    158 H76       -10.0890    1.7280    4.8990 hx        1 MOL      0.102536
    159 H77       -10.1770    1.4420    7.2320 hn        1 MOL      0.217679
    160 H78        -8.8000    0.4680    7.2170 hn        1 MOL      0.217679
    161 H79        -8.6720    1.9730    6.9970 hn        1 MOL      0.217679
    162 N14        -4.6800    1.2910   -0.0310 n         1 MOL      0.023046
    163 C49        -3.7160    1.8960   -0.9580 c3        1 MOL     -0.072678
    164 C50        -4.1980    1.9060   -2.3350 c         1 MOL      0.413650
    165 O22        -4.1070    2.9090   -3.0180 o         1 MOL     -0.578271
    166 C51        -2.4310    1.1940   -0.7730 c3        1 MOL      0.155907
    167 C52        -1.7080    1.5820    0.4580 c3        1 MOL     -0.394438
    168 C53        -0.4060    0.8090    0.6140 c         1 MOL      0.823154
    169 O23         0.6620    1.4120    0.8790 o         1 MOL     -0.763995
    170 O24        -0.3300   -0.4480    0.4180 o         1 MOL     -0.763995
    171 H80        -4.4760    0.3310    0.1990 hn        1 MOL     -0.019750
    172 H81        -3.6560    2.9320   -0.6370 h1        1 MOL      0.095081
    173 H82        -1.7350    1.3030   -1.6020 hc        1 MOL      0.007762
    174 H83        -2.6630    0.1330   -0.8160 hc        1 MOL      0.007762
    175 H84        -2.3980    1.4290    1.2910 hc        1 MOL      0.072146
    176 H85        -1.5450    2.6490    0.3200 hc        1 MOL      0.072146
    177 N15        -4.8540    0.8790   -2.8320 n         1 MOL      0.090147
    178 C54        -5.4860    0.7800   -4.1420 c3        1 MOL     -0.441796
    179 H86        -5.8600   -0.2340   -4.2890 h1        1 MOL      0.139779
    180 H87        -6.3150    1.4850   -4.2000 h1        1 MOL      0.139779
    181 H88        -4.7550    1.0130   -4.9170 h1        1 MOL      0.139779
    182 H89        -4.8840    0.1060   -2.1810 hn        1 MOL     -0.004647
    183 Ca1         1.9820   -0.8920    1.3370 Ca        1 MOL      1.746981
    184 O25         0.7440   -3.1810    1.6700 oh        1 MOL     -0.862777
    185 H90         1.3220   -3.9180    1.4810 ho        1 MOL      0.395908
    186 H91         0.2320   -3.4610    2.4320 ho        1 MOL      0.395908
    187 O26         0.1180   -0.3750    3.3290 oh        1 MOL     -0.862777
    188 H92         0.4400    0.3060    3.9290 ho        1 MOL      0.395908
    189 H93        -0.8130   -0.4300    3.5050 ho        1 MOL      0.395908
@<TRIPOS>BOND
     1    1    2 1   
     2    1    4 1   
     3    1    5 1   
     4    1    6 1   
     5    2    3 2   
     6    2    7 1   
     7    7    8 1   
     8    7   15 1   
     9    8    9 1   
    10    8   11 1   
    11    8   16 1   
    12    9   10 2   
    13    9   19 1   
    14   11   12 1   
    15   11   17 1   
    16   11   18 1   
    17   12   13 1   
    18   12   14 1   
    19   19   20 1   
    20   19   28 1   
    21   20   21 1   
    22   20   23 1   
    23   20   29 1   
    24   21   22 2   
    25   21   41 1   
    26   23   24 1   
    27   23   30 1   
    28   23   31 1   
    29   24   25 1   
    30   24   32 1   
    31   24   33 1   
    32   25   26 1   
    33   25   34 1   
    34   25   35 1   
    35   26   27 1   
    36   26   36 1   
    37   26   37 1   
    38   27   38 1   
    39   27   39 1   
    40   27   40 1   
    41   41   42 1   
    42   41   49 1   
    43   42   43 1   
    44   42   45 1   
    45   42   50 1   
    46   43   44 2   
    47   43   53 1   
    48   45   46 1   
    49   45   51 1   
    50   45   52 1   
    51   46   47 1   
    52   46   48 1   
    53   53   54 1   
    54   53   57 1   
    55   54   55 1   
    56   54   58 1   
    57   54   59 1   
    58   55   56 2   
    59   55   60 1   
    60   60   61 1   
    61   60   68 1   
    62   61   62 1   
    63   61   64 1   
    64   61   69 1   
    65   62   63 2   
    66   62   72 1   
    67   64   65 1   
    68   64   70 1   
    69   64   71 1   
    70   65   66 1   
    71   65   67 1   
    72   72   73 1   
    73   72   76 1   
    74   73   74 1   
    75   73   77 1   
    76   73   78 1   
    77   74   75 2   
    78   74   79 1   
    79   79   80 1   
    80   79   86 1   
    81   80   81 1   
    82   80   83 1   
    83   80   87 1   
    84   81   82 2   
    85   81   93 1   
    86   83   84 1   
    87   83   85 1   
    88   83   88 1   
    89   84   90 1   
    90   84   91 1   
    91   84   92 1   
    92   85   89 1   
    93   93   94 1   
    94   93  101 1   
    95   94   95 1   
    96   94   97 1   
    97   94  102 1   
    98   95   96 2   
    99   95  112 1   
   100   97   98 1   
   101   97   99 1   
   102   97  103 1   
   103   98  100 1   
   104   98  104 1   
   105   98  105 1   
   106   99  106 1   
   107   99  107 1   
   108   99  108 1   
   109  100  109 1   
   110  100  110 1   
   111  100  111 1   
   112  112  113 1   
   113  112  119 1   
   114  113  114 1   
   115  113  116 1   
   116  113  120 1   
   117  114  115 2   
   118  114  126 1   
   119  116  117 1   
   120  116  118 1   
   121  116  121 1   
   122  117  123 1   
   123  117  124 1   
   124  117  125 1   
   125  118  122 1   
   126  126  127 1   
   127  126  133 1   
   128  127  128 1   
   129  127  130 1   
   130  127  134 1   
   131  128  129 2   
   132  128  140 1   
   133  130  131 1   
   134  130  132 1   
   135  130  135 1   
   136  131  137 1   
   137  131  138 1   
   138  131  139 1   
   139  132  136 1   
   140  140  141 1   
   141  140  149 1   
   142  141  142 1   
   143  141  144 1   
   144  141  150 1   
   145  142  143 2   
   146  142  162 1   
   147  144  145 1   
   148  144  151 1   
   149  144  152 1   
   150  145  146 1   
   151  145  153 1   
   152  145  154 1   
   153  146  147 1   
   154  146  155 1   
   155  146  156 1   
   156  147  148 1   
   157  147  157 1   
   158  147  158 1   
   159  148  159 1   
   160  148  160 1   
   161  148  161 1   
   162  162  163 1   
   163  162  171 1   
   164  163  164 1   
   165  163  166 1   
   166  163  172 1   
   167  164  165 2   
   168  164  177 1   
   169  166  167 1   
   170  166  173 1   
   171  166  174 1   
   172  167  168 1   
   173  167  175 1   
   174  167  176 1   
   175  168  169 1   
   176  168  170 1   
   177  177  178 1   
   178  177  182 1   
   179  178  179 1   
   180  178  180 1   
   181  178  181 1   
   182  184  185 1   
   183  184  186 1   
   184  187  188 1   
   185  187  189 1   
@<TRIPOS>SUBSTRUCTURE
     1 MOL         1 TEMP              0 ****  ****    0 ROOT
