@<TRIPOS>MOLECULE
MOL
  189   185     1     0     0
SMALL
resp


@<TRIPOS>ATOM
      1 C1          0.0920    1.7900    6.1370 c3        1 MOL     -0.249977
      2 C2         -0.2680    1.4980    4.6680 c         1 MOL      0.714812
      3 O1          0.5250    1.7540    3.7470 o         1 MOL     -0.626884
      4 H1          1.1580    2.0040    6.2130 hc        1 MOL      0.063793
      5 H2         -0.4750    2.6520    6.4860 hc        1 MOL      0.063793
      6 H3         -0.1480    0.9220    6.7500 hc        1 MOL      0.063793
      7 N1         -1.4480    0.9990    4.4090 n         1 MOL     -0.630169
      8 C3         -2.0120    1.0360    2.9720 c3        1 MOL      0.127510
      9 C4         -2.2160    2.5000    2.5670 c         1 MOL      0.536338
     10 O2         -2.8550    3.2720    3.3470 o         1 MOL     -0.584405
     11 C5         -3.3180    0.2010    2.9900 c3        1 MOL     -0.189250
     12 C6         -3.9130   -0.0590    1.6770 c         1 MOL      0.647968
     13 O3         -3.4030    0.2680    0.6300 o         1 MOL     -0.637860
     14 O4         -5.1010   -0.5170    1.6430 o         1 MOL     -0.637860
     15 H4         -2.1140    0.8150    5.1550 hn        1 MOL      0.335318
     16 H5         -1.2490    0.5840    2.3370 h1        1 MOL      0.098070
     17 H6         -4.0290    0.7420    3.6130 hc        1 MOL      0.065105
     18 H7         -3.0910   -0.7160    3.5400 hc        1 MOL      0.065105
     19 N2         -1.6180    2.9780    1.4770 n         1 MOL     -0.097071
     20 C7         -1.5840    4.4100    1.0360 c3        1 MOL      0.120779
     21 C8         -2.8650    4.7110    0.2060 c         1 MOL      0.400252
     22 O5         -3.7100    5.4930    0.6590 o         1 MOL     -0.543883
     23 C9         -0.2900    4.7980    0.3450 c3        1 MOL      0.003144
     24 C10        -0.1720    6.2830    0.0920 c3        1 MOL     -0.391065
     25 C11        -0.6370    7.3120    1.1860 c3        1 MOL      0.312101
     26 C12        -0.3140    8.7950    0.7490 c3        1 MOL     -0.008757
     27 N3         -0.6760    9.7640    1.8260 n4        1 MOL     -0.298422
     28 H8         -1.1430    2.2550    0.9450 hn        1 MOL     -0.045986
     29 H9         -1.7080    5.0080    1.9330 h1        1 MOL     -0.018297
     30 H10        -0.0960    4.1660   -0.5190 hc        1 MOL      0.096768
     31 H11         0.4540    4.4500    1.0560 hc        1 MOL      0.096768
     32 H12        -0.6910    6.5650   -0.8270 hc        1 MOL      0.074557
     33 H13         0.9010    6.4100   -0.0780 hc        1 MOL      0.074557
     34 H14         0.0070    7.2000    2.0600 hc        1 MOL     -0.032584
     35 H15        -1.7010    7.2120    1.3980 hc        1 MOL     -0.032584
     36 H16        -0.9180    9.1240   -0.0860 hx        1 MOL      0.073420
     37 H17         0.7430    8.8450    0.5020 hx        1 MOL      0.073420
     38 H18        -0.2930    9.4170    2.6970 hn        1 MOL      0.310888
     39 H19        -0.2890   10.6810    1.6310 hn        1 MOL      0.310888
     40 H20        -1.6730    9.7980    1.9380 hn        1 MOL      0.310888
     41 N4         -3.1000    3.9400   -0.8640 n         1 MOL     -0.273719
     42 C13        -4.2000    3.9670   -1.8630 c3        1 MOL     -0.014503
     43 C14        -5.4830    3.1520   -1.4270 c         1 MOL      0.425951
     44 O6         -6.5370    3.1710   -2.0650 o         1 MOL     -0.498425
     45 C15        -3.6830    3.6170   -3.2990 c3        1 MOL     -0.317613
     46 C16        -2.9690    2.3320   -3.4670 c         1 MOL      0.809703
     47 O7         -2.8000    1.6060   -2.4710 o         1 MOL     -0.721398
     48 O8         -2.4010    1.9950   -4.5640 o         1 MOL     -0.721398
     49 H21        -2.3840    3.2430   -1.0160 hn        1 MOL      0.234622
     50 H22        -4.6330    4.9580   -1.7540 h1        1 MOL      0.084051
     51 H23        -3.0110    4.4000   -3.6480 hc        1 MOL      0.087818
     52 H24        -4.4840    3.5700   -4.0270 hc        1 MOL      0.087818
     53 N5         -5.3760    2.4540   -0.2830 n         1 MOL     -0.129904
     54 C17        -6.5920    1.9610    0.3110 c3        1 MOL     -0.305299
     55 C18        -7.1340    0.8470   -0.5270 c         1 MOL      0.617198
     56 O9         -8.3060    0.8080   -0.7960 o         1 MOL     -0.599378
     57 H25        -4.5020    2.4920    0.2180 hn        1 MOL      0.223072
     58 H26        -7.3320    2.7600    0.3960 h1        1 MOL      0.132821
     59 H27        -6.3120    1.5120    1.2680 h1        1 MOL      0.132821
     60 N6         -6.3550   -0.0420   -1.0400 n         1 MOL     -0.107123
     61 C19        -6.8870   -1.2250   -1.7910 c3        1 MOL      0.083592
     62 C20        -7.0170   -2.5060   -0.8700 c         1 MOL      0.427195
     63 O10        -7.6970   -3.4710   -1.1780 o         1 MOL     -0.542933
     64 C21        -5.9240   -1.6230   -2.9490 c3        1 MOL     -0.385480
     65 C22        -4.4820   -1.6810   -2.5300 c         1 MOL      0.822581
     66 O11        -3.6230   -1.2370   -3.3180 o         1 MOL     -0.691226
     67 O12        -4.0440   -2.2400   -1.4860 o         1 MOL     -0.691226
     68 H28        -5.3950   -0.1190   -0.7390 hn        1 MOL     -0.031499
     69 H29        -7.9210   -1.0900   -2.0990 h1        1 MOL      0.096280
     70 H30        -6.0500   -0.7280   -3.5640 hc        1 MOL      0.115346
     71 H31        -6.2110   -2.5550   -3.4380 hc        1 MOL      0.115346
     72 N7         -6.4640   -2.4040    0.3250 n         1 MOL     -0.144803
     73 C23        -6.4260   -3.5050    1.2710 c3        1 MOL     -0.002054
     74 C24        -5.1290   -4.3570    1.2870 c         1 MOL      0.440799
     75 O13        -5.1260   -5.4530    1.9000 o         1 MOL     -0.589201
     76 H32        -5.6780   -1.7600    0.3060 hn        1 MOL     -0.007610
     77 H33        -7.3110   -4.1300    1.1810 h1        1 MOL      0.064569
     78 H34        -6.5060   -3.0940    2.2830 h1        1 MOL      0.064569
     79 N8         -4.0530   -3.9200    0.7240 n         1 MOL     -0.022446
     80 C25        -2.8060   -4.6500    0.5990 c3        1 MOL     -0.493788
     81 C26        -1.5630   -3.7370    0.7120 c         1 MOL      0.830214
     82 O14        -1.5850   -2.5160    0.3370 o         1 MOL     -0.765797
     83 C27        -2.7020   -5.4180   -0.7200 c3        1 MOL      0.481325
     84 C28        -3.7390   -6.5940   -0.7390 c3        1 MOL     -0.596574
     85 O15        -2.8660   -4.6220   -1.8960 oh        1 MOL     -0.625221
     86 H35        -4.1390   -3.0280    0.2540 hn        1 MOL      0.202066
     87 H36        -2.7240   -5.4200    1.3760 h1        1 MOL      0.160808
     88 H37        -1.7160   -5.8320   -0.9320 h1        1 MOL      0.017033
     89 H38        -3.3900   -3.8460   -1.6520 ho        1 MOL      0.396451
     90 H39        -4.7350   -6.1590   -0.8690 hc        1 MOL      0.161756
     91 H40        -3.4040   -7.2290   -1.5530 hc        1 MOL      0.161756
     92 H41        -3.6740   -7.2480    0.1230 hc        1 MOL      0.161756
     93 N9         -0.4770   -4.2450    1.1120 n         1 MOL     -0.579856
     94 C29         0.8210   -3.5360    1.4090 c3        1 MOL      0.325511
     95 C30         1.8140   -3.8180    0.2620 c         1 MOL      0.338747
     96 O16         2.1600   -4.9920    0.0400 o         1 MOL     -0.548494
     97 C31         1.3980   -4.0480    2.8240 c3        1 MOL      0.025547
     98 C32         0.5820   -3.5510    4.0510 c3        1 MOL     -0.056476
     99 C33         2.8570   -3.6590    2.9560 c3        1 MOL     -0.263762
    100 C34         0.8130   -2.1100    4.6060 c3        1 MOL     -0.070177
    101 H42        -0.6300   -5.1970    1.4240 hn        1 MOL      0.261306
    102 H43         0.6260   -2.4720    1.5570 h1        1 MOL      0.100034
    103 H44         1.2400   -5.1280    2.8320 hc        1 MOL      0.025335
    104 H45         0.6880   -4.2090    4.9170 hc        1 MOL      0.012574
    105 H46        -0.4660   -3.6030    3.7620 hc        1 MOL      0.012574
    106 H47         2.9720   -2.6220    2.6470 hc        1 MOL      0.055291
    107 H48         3.1810   -3.7150    3.9910 hc        1 MOL      0.055291
    108 H49         3.4130   -4.3400    2.3080 hc        1 MOL      0.055291
    109 H50         0.6310   -1.4000    3.7870 hc        1 MOL      0.027783
    110 H51         0.1380   -1.9810    5.4530 hc        1 MOL      0.027783
    111 H52         1.8370   -1.8740    4.9020 hc        1 MOL      0.027783
    112 N10         2.3170   -2.8010   -0.4060 n         1 MOL     -0.038690
    113 C35         3.3940   -3.0160   -1.4070 c3        1 MOL      0.016427
    114 C36         4.8050   -2.9950   -0.6950 c         1 MOL      0.291468
    115 O17         4.9480   -2.8510    0.4890 o         1 MOL     -0.285954
    116 C37         3.3250   -1.8340   -2.4400 c3        1 MOL      0.030111
    117 C38         2.1280   -1.8600   -3.3170 c3        1 MOL     -0.579284
    118 O18         3.4030   -0.6190   -1.7050 oh        1 MOL     -0.386137
    119 H53         1.7470   -1.9560   -0.4190 hn        1 MOL      0.191718
    120 H54         3.3050   -3.9610   -1.9470 h1        1 MOL      0.090094
    121 H55         4.1150   -1.9730   -3.1840 h1        1 MOL      0.055594
    122 H56         3.3630   -0.0230   -2.4530 ho        1 MOL      0.369650
    123 H57         1.3630   -1.2400   -2.8490 hc        1 MOL      0.169066
    124 H58         2.3500   -1.3690   -4.2720 hc        1 MOL      0.169066
    125 H59         1.7770   -2.8940   -3.4320 hc        1 MOL      0.169066
    126 N11         5.8910   -3.1440   -1.4860 n         1 MOL     -0.314308
    127 C39         7.2010   -2.6870   -1.0680 c3        1 MOL      0.056744
    128 C40         7.4150   -1.3060   -0.4590 c         1 MOL      0.418370
    129 O19         7.7770   -1.2320    0.7040 o         1 MOL     -0.460410
    130 C41         8.2760   -2.8010   -2.1780 c3        1 MOL      0.166026
    131 C42         8.7160   -4.2000   -2.4190 c3        1 MOL     -0.347844
    132 O20         7.6890   -2.3410   -3.3660 oh        1 MOL     -0.596781
    133 H60         5.7340   -3.3990   -2.4480 hn        1 MOL      0.264291
    134 H61         7.4960   -3.3330   -0.2360 h1        1 MOL      0.079293
    135 H62         9.1500   -2.2420   -1.8180 h1        1 MOL      0.073359
    136 H63         8.3430   -2.7400   -3.9390 ho        1 MOL      0.406129
    137 H64         8.7640   -4.8270   -1.5250 hc        1 MOL      0.101600
    138 H65         7.9390   -4.7300   -2.9780 hc        1 MOL      0.101600
    139 H66         9.6500   -4.2300   -2.9820 hc        1 MOL      0.101600
    140 N12         7.1510   -0.1460   -1.1420 n         1 MOL     -0.408827
    141 C43         7.1200    1.2090   -0.5090 c3        1 MOL      0.001686
    142 C44         6.1390    1.4730    0.6420 c         1 MOL      0.258621
    143 O21         6.5880    2.1310    1.6010 o         1 MOL     -0.488565
    144 C45         7.1600    2.3160   -1.5740 c3        1 MOL      0.043504
    145 C46         7.4440    3.7260   -1.1320 c3        1 MOL     -0.230006
    146 C47         7.2760    4.7810   -2.2140 c3        1 MOL     -0.002389
    147 C48         5.8260    4.7280   -2.8150 c3        1 MOL      0.180038
    148 N13         5.6360    5.9030   -3.6470 n4        1 MOL     -0.457775
    149 H67         6.8150   -0.1800   -2.0930 hn        1 MOL      0.215989
    150 H68         8.1090    1.3250   -0.0700 h1        1 MOL      0.123779
    151 H69         6.1010    2.2890   -1.8130 hc        1 MOL      0.005850
    152 H70         7.8720    2.0230   -2.3560 hc        1 MOL      0.005850
    153 H71         8.5070    3.7360   -0.9080 hc        1 MOL      0.104150
    154 H72         6.6490    3.9390   -0.4110 hc        1 MOL      0.104150
    155 H73         7.9870    4.6200   -3.0140 hc        1 MOL      0.035833
    156 H74         7.4580    5.7570   -1.7740 hc        1 MOL      0.035833
    157 H75         5.0690    4.7620   -2.0190 hx        1 MOL      0.028991
    158 H76         5.6630    3.7900   -3.3450 hx        1 MOL      0.028991
    159 H77         6.4440    5.9080   -4.2640 hn        1 MOL      0.321639
    160 H78         4.7930    5.8410   -4.2070 hn        1 MOL      0.321639
    161 H79         5.5350    6.7550   -3.1140 hn        1 MOL      0.321639
    162 N14         4.9250    0.9200    0.5760 n         1 MOL      0.027383
    163 C49         3.9870    0.7900    1.7560 c3        1 MOL     -0.260031
    164 C50         4.5690   -0.0360    2.9180 c         1 MOL      0.519434
    165 O22         4.5410    0.4210    4.0540 o         1 MOL     -0.552114
    166 C51         2.6270    0.3090    1.2580 c3        1 MOL      0.212211
    167 C52         1.9920    1.3370    0.3660 c3        1 MOL     -0.474723
    168 C53         0.7480    0.7840   -0.3070 c         1 MOL      0.764394
    169 O23         0.5220   -0.4850   -0.4760 o         1 MOL     -0.737905
    170 O24        -0.2500    1.5050   -0.5370 o         1 MOL     -0.737905
    171 H80         4.7240    0.4360   -0.2830 hn        1 MOL      0.179710
    172 H81         3.8080    1.7370    2.2660 h1        1 MOL      0.129805
    173 H82         1.8860    0.1250    2.0350 hc        1 MOL      0.010883
    174 H83         2.8370   -0.5820    0.6540 hc        1 MOL      0.010883
    175 H84         2.6620    1.7550   -0.3790 hc        1 MOL      0.064592
    176 H85         1.7510    2.0990    1.1110 hc        1 MOL      0.064592
    177 N15         5.3130   -1.1530    2.7440 n         1 MOL      0.018898
    178 C54         5.9900   -1.8960    3.8330 c3        1 MOL     -0.460510
    179 H86         5.3630   -2.7320    4.1450 h1        1 MOL      0.150667
    180 H87         6.9470   -2.2750    3.4740 h1        1 MOL      0.150667
    181 H88         6.1550   -1.2310    4.6790 h1        1 MOL      0.150667
    182 H89         5.3460   -1.6370    1.8540 hn        1 MOL      0.042960
    183 Ca1        -1.8360   -0.5110   -1.3940 Ca        1 MOL      1.801791
    184 O25        -1.0070   -2.7390   -2.6330 oh        1 MOL     -0.857221
    185 H90        -1.5770   -3.4790   -2.4080 ho        1 MOL      0.391962
    186 H91        -0.9720   -2.7400   -3.5820 ho        1 MOL      0.391962
    187 O26        -0.7660    0.1700   -3.6800 oh        1 MOL     -0.857221
    188 H92        -0.0170    0.4060   -4.2380 ho        1 MOL      0.391962
    189 H93        -1.4770    0.7350   -3.9900 ho        1 MOL      0.391962
@<TRIPOS>BOND
     1    1    2 1   
     2    1    4 1   
     3    1    5 1   
     4    1    6 1   
     5    2    3 2   
     6    2    7 1   
     7    7    8 1   
     8    7   15 1   
     9    8    9 1   
    10    8   11 1   
    11    8   16 1   
    12    9   10 2   
    13    9   19 1   
    14   11   12 1   
    15   11   17 1   
    16   11   18 1   
    17   12   13 1   
    18   12   14 1   
    19   19   20 1   
    20   19   28 1   
    21   20   21 1   
    22   20   23 1   
    23   20   29 1   
    24   21   22 2   
    25   21   41 1   
    26   23   24 1   
    27   23   30 1   
    28   23   31 1   
    29   24   25 1   
    30   24   32 1   
    31   24   33 1   
    32   25   26 1   
    33   25   34 1   
    34   25   35 1   
    35   26   27 1   
    36   26   36 1   
    37   26   37 1   
    38   27   38 1   
    39   27   39 1   
    40   27   40 1   
    41   41   42 1   
    42   41   49 1   
    43   42   43 1   
    44   42   45 1   
    45   42   50 1   
    46   43   44 2   
    47   43   53 1   
    48   45   46 1   
    49   45   51 1   
    50   45   52 1   
    51   46   47 1   
    52   46   48 1   
    53   53   54 1   
    54   53   57 1   
    55   54   55 1   
    56   54   58 1   
    57   54   59 1   
    58   55   56 2   
    59   55   60 1   
    60   60   61 1   
    61   60   68 1   
    62   61   62 1   
    63   61   64 1   
    64   61   69 1   
    65   62   63 2   
    66   62   72 1   
    67   64   65 1   
    68   64   70 1   
    69   64   71 1   
    70   65   66 1   
    71   65   67 1   
    72   72   73 1   
    73   72   76 1   
    74   73   74 1   
    75   73   77 1   
    76   73   78 1   
    77   74   75 2   
    78   74   79 1   
    79   79   80 1   
    80   79   86 1   
    81   80   81 1   
    82   80   83 1   
    83   80   87 1   
    84   81   82 2   
    85   81   93 1   
    86   83   84 1   
    87   83   85 1   
    88   83   88 1   
    89   84   90 1   
    90   84   91 1   
    91   84   92 1   
    92   85   89 1   
    93   93   94 1   
    94   93  101 1   
    95   94   95 1   
    96   94   97 1   
    97   94  102 1   
    98   95   96 2   
    99   95  112 1   
   100   97   98 1   
   101   97   99 1   
   102   97  103 1   
   103   98  100 1   
   104   98  104 1   
   105   98  105 1   
   106   99  106 1   
   107   99  107 1   
   108   99  108 1   
   109  100  109 1   
   110  100  110 1   
   111  100  111 1   
   112  112  113 1   
   113  112  119 1   
   114  113  114 1   
   115  113  116 1   
   116  113  120 1   
   117  114  115 2   
   118  114  126 1   
   119  116  117 1   
   120  116  118 1   
   121  116  121 1   
   122  117  123 1   
   123  117  124 1   
   124  117  125 1   
   125  118  122 1   
   126  126  127 1   
   127  126  133 1   
   128  127  128 1   
   129  127  130 1   
   130  127  134 1   
   131  128  129 2   
   132  128  140 1   
   133  130  131 1   
   134  130  132 1   
   135  130  135 1   
   136  131  137 1   
   137  131  138 1   
   138  131  139 1   
   139  132  136 1   
   140  140  141 1   
   141  140  149 1   
   142  141  142 1   
   143  141  144 1   
   144  141  150 1   
   145  142  143 2   
   146  142  162 1   
   147  144  145 1   
   148  144  151 1   
   149  144  152 1   
   150  145  146 1   
   151  145  153 1   
   152  145  154 1   
   153  146  147 1   
   154  146  155 1   
   155  146  156 1   
   156  147  148 1   
   157  147  157 1   
   158  147  158 1   
   159  148  159 1   
   160  148  160 1   
   161  148  161 1   
   162  162  163 1   
   163  162  171 1   
   164  163  164 1   
   165  163  166 1   
   166  163  172 1   
   167  164  165 2   
   168  164  177 1   
   169  166  167 1   
   170  166  173 1   
   171  166  174 1   
   172  167  168 1   
   173  167  175 1   
   174  167  176 1   
   175  168  169 1   
   176  168  170 1   
   177  177  178 1   
   178  177  182 1   
   179  178  179 1   
   180  178  180 1   
   181  178  181 1   
   182  184  185 1   
   183  184  186 1   
   184  187  188 1   
   185  187  189 1   
@<TRIPOS>SUBSTRUCTURE
     1 MOL         1 TEMP              0 ****  ****    0 ROOT
