@<TRIPOS>MOLECULE
MOL
  189   185     1     0     0
SMALL
resp


@<TRIPOS>ATOM
      1 C1         -0.6900    1.8930    6.2550 c3        1 MOL     -0.320227
      2 C2         -0.7910    1.6430    4.6870 c         1 MOL      0.691277
      3 O1          0.0880    2.0380    3.9210 o         1 MOL     -0.630016
      4 H1         -1.3130    2.7450    6.5280 hc        1 MOL      0.087097
      5 H2         -1.0350    1.0060    6.7870 hc        1 MOL      0.087097
      6 H3          0.3450    2.0990    6.5250 hc        1 MOL      0.087097
      7 N1         -2.0390    1.2280    4.2590 n         1 MOL     -0.607766
      8 C3         -2.5040    1.1720    2.9030 c3        1 MOL      0.223538
      9 C4         -2.8810    2.6010    2.4450 c         1 MOL      0.369891
     10 O2         -4.0260    3.0600    2.5580 o         1 MOL     -0.487758
     11 C5         -3.7300    0.2770    2.8240 c3        1 MOL     -0.102305
     12 C6         -4.3120    0.2350    1.4310 c         1 MOL      0.612905
     13 O3         -3.6500    0.4530    0.3890 o         1 MOL     -0.583251
     14 O4         -5.5060   -0.0620    1.3840 o         1 MOL     -0.583251
     15 H4         -2.7000    0.9150    4.9410 hn        1 MOL      0.319998
     16 H5         -1.6850    0.7490    2.2960 h1        1 MOL      0.031638
     17 H6         -4.5580    0.4760    3.5010 hc        1 MOL      0.022481
     18 H7         -3.3340   -0.6620    3.1950 hc        1 MOL      0.022481
     19 N2         -1.8910    3.2990    1.8380 n         1 MOL     -0.181975
     20 C7         -1.9480    4.7390    1.6070 c3        1 MOL     -0.076069
     21 C8         -2.9660    5.0500    0.4750 c         1 MOL      0.504947
     22 O5         -3.6200    6.0380    0.6520 o         1 MOL     -0.564804
     23 C9         -0.6740    5.2270    0.9970 c3        1 MOL     -0.253493
     24 C10         0.4120    5.1810    2.1270 c3        1 MOL      0.127139
     25 C11         1.7090    5.9130    1.6880 c3        1 MOL     -0.149647
     26 C12         2.7990    5.8230    2.8140 c3        1 MOL      0.057483
     27 N3          3.9780    6.5700    2.4110 n4        1 MOL     -0.304469
     28 H8         -1.0180    2.8270    1.6460 hn        1 MOL      0.244487
     29 H9         -2.3010    5.2740    2.4950 h1        1 MOL      0.107917
     30 H10        -0.7040    6.2880    0.7490 hc        1 MOL      0.093051
     31 H11        -0.3140    4.6000    0.1810 hc        1 MOL      0.093051
     32 H12         0.5140    4.1090    2.3010 hc        1 MOL      0.020127
     33 H13         0.0710    5.6570    3.0370 hc        1 MOL      0.020127
     34 H14         1.5140    6.9750    1.5230 hc        1 MOL      0.046233
     35 H15         2.0460    5.5940    0.6990 hc        1 MOL      0.046233
     36 H16         3.1630    4.7970    2.8380 hx        1 MOL      0.090887
     37 H17         2.3940    5.9800    3.8110 hx        1 MOL      0.090887
     38 H18         3.7680    7.5280    2.1400 hn        1 MOL      0.308988
     39 H19         4.7430    6.5870    3.0630 hn        1 MOL      0.308988
     40 H20         4.3440    6.1360    1.5760 hn        1 MOL      0.308988
     41 N4         -3.1790    4.1350   -0.4700 n         1 MOL     -0.257920
     42 C13        -4.0200    4.3520   -1.6470 c3        1 MOL      0.056970
     43 C14        -5.3110    3.5550   -1.6920 c         1 MOL      0.433110
     44 O6         -6.1140    3.8770   -2.5700 o         1 MOL     -0.521044
     45 C15        -3.2670    4.2640   -2.9750 c3        1 MOL     -0.319769
     46 C16        -2.4330    3.0190   -3.1100 c         1 MOL      0.881286
     47 O7         -2.5140    2.0220   -2.2940 o         1 MOL     -0.747539
     48 O8         -1.5140    3.0300   -3.9780 o         1 MOL     -0.747539
     49 H21        -2.6110    3.2920   -0.4290 hn        1 MOL      0.136410
     50 H22        -4.3980    5.3700   -1.5700 h1        1 MOL      0.085036
     51 H23        -2.5700    5.0930   -2.9860 hc        1 MOL      0.079044
     52 H24        -3.9710    4.3120   -3.8070 hc        1 MOL      0.079044
     53 N5         -5.5240    2.6700   -0.7310 n         1 MOL     -0.178862
     54 C17        -6.9010    2.2380   -0.4880 c3        1 MOL     -0.137345
     55 C18        -7.3170    1.1270   -1.4470 c         1 MOL      0.595974
     56 O9         -8.3570    1.2060   -2.0860 o         1 MOL     -0.582332
     57 H25        -4.8030    2.3930   -0.0820 hn        1 MOL      0.212990
     58 H26        -7.6540    3.0030   -0.6690 h1        1 MOL      0.079629
     59 H27        -7.0440    1.8390    0.5190 h1        1 MOL      0.079629
     60 N6         -6.5980    0.0040   -1.4300 n         1 MOL     -0.168403
     61 C19        -6.9150   -1.2820   -2.0640 c3        1 MOL      0.017001
     62 C20        -6.9030   -2.4780   -1.0580 c         1 MOL      0.416077
     63 O10        -7.1260   -3.6000   -1.4690 o         1 MOL     -0.524342
     64 C21        -5.9800   -1.5130   -3.3020 c3        1 MOL     -0.288094
     65 C22        -4.5200   -1.3210   -2.8570 c         1 MOL      0.708159
     66 O11        -4.1430   -1.8370   -1.7960 o         1 MOL     -0.653478
     67 O12        -3.7690   -0.6110   -3.5730 o         1 MOL     -0.653478
     68 H28        -5.7630   -0.0390   -0.8710 hn        1 MOL     -0.057217
     69 H29        -7.9370   -1.2920   -2.4240 h1        1 MOL      0.096532
     70 H30        -6.2640   -0.6880   -3.9520 hc        1 MOL      0.097312
     71 H31        -6.0270   -2.4640   -3.8380 hc        1 MOL      0.097312
     72 N7         -6.6630   -2.3370    0.2500 n         1 MOL     -0.292638
     73 C23        -6.5690   -3.4150    1.2440 c3        1 MOL      0.035367
     74 C24        -5.3020   -4.2740    1.0990 c         1 MOL      0.460309
     75 O13        -5.3440   -5.4510    1.4920 o         1 MOL     -0.559549
     76 H32        -6.4770   -1.4090    0.6160 hn        1 MOL      0.205304
     77 H33        -7.4300   -4.0970    1.2400 h1        1 MOL      0.054137
     78 H34        -6.5750   -3.0050    2.2620 h1        1 MOL      0.054137
     79 N8         -4.1700   -3.7140    0.7140 n         1 MOL     -0.169217
     80 C25        -2.8880   -4.3970    0.6360 c3        1 MOL     -0.293212
     81 C26        -1.7430   -3.3840    0.8440 c         1 MOL      0.632527
     82 O14        -1.8430   -2.2270    0.4610 o         1 MOL     -0.656098
     83 C27        -2.6450   -5.0610   -0.6690 c3        1 MOL      0.578749
     84 C28        -3.2650   -6.4600   -0.7580 c3        1 MOL     -0.447681
     85 O15        -2.9170   -4.2300   -1.7430 oh        1 MOL     -0.644584
     86 H35        -4.1820   -2.7330    0.4640 hn        1 MOL      0.179134
     87 H36        -2.7640   -5.2260    1.3400 h1        1 MOL      0.113667
     88 H37        -1.5730   -5.2460   -0.8010 h1        1 MOL     -0.035531
     89 H38        -3.5050   -3.5510   -1.4160 ho        1 MOL      0.411668
     90 H39        -3.0330   -6.8490   -1.7420 hc        1 MOL      0.110113
     91 H40        -2.8090   -7.1910   -0.0920 hc        1 MOL      0.110113
     92 H41        -4.3480   -6.4090   -0.6060 hc        1 MOL      0.110113
     93 N9         -0.6230   -3.9670    1.3180 n         1 MOL     -0.498104
     94 C29         0.6190   -3.3140    1.5760 c3        1 MOL      0.029223
     95 C30         1.6540   -3.7730    0.5580 c         1 MOL      0.411318
     96 O16         2.1590   -4.9310    0.6060 o         1 MOL     -0.543493
     97 C31         1.1080   -3.6260    3.0660 c3        1 MOL      0.314713
     98 C32         0.0450   -2.9230    3.9170 c3        1 MOL     -0.084188
     99 C33         2.5500   -3.2420    3.3720 c3        1 MOL     -0.311847
    100 C34         0.4710   -3.0120    5.4150 c3        1 MOL     -0.163183
    101 H42        -0.7530   -4.9360    1.5630 hn        1 MOL      0.269910
    102 H43         0.3950   -2.2530    1.4790 h1        1 MOL      0.151182
    103 H44         1.0150   -4.6990    3.2590 hc        1 MOL     -0.020158
    104 H45        -0.8390   -3.5480    3.7570 hc        1 MOL      0.011796
    105 H46        -0.1280   -1.9090    3.5680 hc        1 MOL      0.011796
    106 H47         3.1690   -3.5210    2.5170 hc        1 MOL      0.056579
    107 H48         2.5520   -2.1470    3.3640 hc        1 MOL      0.056579
    108 H49         2.8870   -3.6780    4.3140 hc        1 MOL      0.056579
    109 H50         0.4710   -4.0750    5.6580 hc        1 MOL      0.045049
    110 H51         1.4480   -2.5900    5.6200 hc        1 MOL      0.045049
    111 H52        -0.2230   -2.5780    6.1360 hc        1 MOL      0.045049
    112 N10         2.1150   -2.8210   -0.2650 n         1 MOL     -0.202569
    113 C35         3.3210   -3.0040   -1.1010 c3        1 MOL     -0.017519
    114 C36         4.6220   -2.7380   -0.3840 c         1 MOL      0.394709
    115 O17         4.7770   -2.2830    0.7610 o         1 MOL     -0.329928
    116 C37         3.2800   -2.0040   -2.2610 c3        1 MOL      0.019213
    117 C38         1.9990   -1.8780   -3.0820 c3        1 MOL     -0.411795
    118 O18         3.5620   -0.7750   -1.7750 oh        1 MOL     -0.447103
    119 H53         1.5730   -1.9640   -0.2840 hn        1 MOL      0.180701
    120 H54         3.3360   -3.9970   -1.5520 h1        1 MOL      0.099401
    121 H55         4.0650   -2.2020   -2.9890 h1        1 MOL      0.062483
    122 H56         2.7600   -0.2780   -1.9420 ho        1 MOL      0.406169
    123 H57         1.5870   -2.8640   -3.3270 hc        1 MOL      0.129141
    124 H58         1.2680   -1.1660   -2.6980 hc        1 MOL      0.129141
    125 H59         2.3010   -1.4920   -4.0600 hc        1 MOL      0.129141
    126 N11         5.7170   -3.0420   -1.0810 n         1 MOL     -0.300607
    127 C39         7.1180   -2.7290   -0.7300 c3        1 MOL     -0.148250
    128 C40         7.2890   -1.2040   -0.2890 c         1 MOL      0.435111
    129 O19         7.8050   -0.9310    0.7940 o         1 MOL     -0.489788
    130 C41         8.0770   -2.9740   -1.8430 c3        1 MOL      0.227526
    131 C42         8.1610   -4.3920   -2.3600 c3        1 MOL     -0.320686
    132 O20         7.7040   -2.1890   -2.9690 oh        1 MOL     -0.626712
    133 H60         5.5440   -3.4780   -1.9760 hn        1 MOL      0.243728
    134 H61         7.3910   -3.3320    0.1340 h1        1 MOL      0.152336
    135 H62         9.1240   -2.8230   -1.6050 h1        1 MOL      0.060683
    136 H63         8.3640   -2.3240   -3.6430 ho        1 MOL      0.408432
    137 H64         8.5060   -5.1230   -1.6320 hc        1 MOL      0.099516
    138 H65         7.1920   -4.7420   -2.7330 hc        1 MOL      0.099516
    139 H66         8.7440   -4.5260   -3.2670 hc        1 MOL      0.099516
    140 N12         6.7580   -0.2470   -0.9940 n         1 MOL     -0.386892
    141 C43         6.7610    1.2310   -0.6220 c3        1 MOL      0.079027
    142 C44         6.0330    1.5450    0.6760 c         1 MOL      0.392430
    143 O21         6.5200    2.3820    1.4640 o         1 MOL     -0.527986
    144 C45         6.0470    1.9560   -1.7330 c3        1 MOL     -0.051798
    145 C46         6.7910    2.1550   -3.0440 c3        1 MOL     -0.029069
    146 C47         6.1660    2.9320   -4.1730 c3        1 MOL      0.057826
    147 C48         6.8000    2.8450   -5.5940 c3        1 MOL     -0.027426
    148 N13         5.9710    3.6030   -6.5630 n4        1 MOL     -0.237686
    149 H67         6.3340   -0.4930   -1.8840 hn        1 MOL      0.350544
    150 H68         7.7350    1.7180   -0.5780 h1        1 MOL      0.076088
    151 H69         5.7540    2.9130   -1.3060 hc        1 MOL      0.011362
    152 H70         5.1760    1.3470   -1.9900 hc        1 MOL      0.011362
    153 H71         7.0500    1.1680   -3.4330 hc        1 MOL      0.008526
    154 H72         7.7000    2.7110   -2.8060 hc        1 MOL      0.008526
    155 H73         6.1480    3.9540   -3.7870 hc        1 MOL      0.018682
    156 H74         5.1340    2.5910   -4.2580 hc        1 MOL      0.018682
    157 H75         6.8530    1.8080   -5.9270 hx        1 MOL      0.090003
    158 H76         7.8120    3.2620   -5.4850 hx        1 MOL      0.090003
    159 H77         6.3840    4.5190   -6.6980 hn        1 MOL      0.272192
    160 H78         6.1270    3.3440   -7.5290 hn        1 MOL      0.272192
    161 H79         4.9920    3.5930   -6.3220 hn        1 MOL      0.272192
    162 N14         4.8990    0.8830    0.8630 n         1 MOL     -0.058329
    163 C49         3.9810    1.0460    2.0230 c3        1 MOL     -0.273412
    164 C50         4.5780    0.4270    3.3110 c         1 MOL      0.471289
    165 O22         4.4640    1.0410    4.3920 o         1 MOL     -0.567836
    166 C51         2.6030    0.4930    1.6620 c3        1 MOL      0.143816
    167 C52         1.9740    1.3790    0.5670 c3        1 MOL     -0.069924
    168 C53         0.6160    0.8570    0.0490 c         1 MOL      0.605528
    169 O23         0.6180   -0.2940   -0.4220 o         1 MOL     -0.680933
    170 O24        -0.4150    1.5620   -0.0040 o         1 MOL     -0.680933
    171 H80         4.5960    0.2530    0.1420 hn        1 MOL      0.052903
    172 H81         4.0650    2.1090    2.2410 h1        1 MOL      0.121038
    173 H82         1.9020    0.4810    2.5000 hc        1 MOL      0.026240
    174 H83         2.7140   -0.5440    1.3460 hc        1 MOL      0.026240
    175 H84         2.7090    1.3960   -0.2290 hc        1 MOL     -0.020323
    176 H85         1.7810    2.4070    0.8930 hc        1 MOL     -0.020323
    177 N15         5.3190   -0.6660    3.2310 n         1 MOL     -0.016350
    178 C54         6.0640   -1.2940    4.3480 c3        1 MOL     -0.392093
    179 H86         7.1350   -1.1850    4.1760 h1        1 MOL      0.138780
    180 H87         5.7960   -0.8050    5.2840 h1        1 MOL      0.138780
    181 H88         5.8120   -2.3520    4.4040 h1        1 MOL      0.138780
    182 H89         5.4630   -1.0890    2.3120 hn        1 MOL      0.140481
    183 Ca1        -1.8950   -0.3170   -1.3280 Ca        1 MOL      1.701370
    184 O25        -0.5710    0.4390   -3.5410 oh        1 MOL     -0.826018
    185 H90         0.3300    0.6590   -3.7970 ho        1 MOL      0.385531
    186 H91        -1.0690    1.2340   -3.7510 ho        1 MOL      0.385531
    187 O26        -1.1960   -2.4140   -2.7690 oh        1 MOL     -0.826018
    188 H92        -0.7560   -2.7520   -3.5460 ho        1 MOL      0.385531
    189 H93        -1.8840   -3.0660   -2.5830 ho        1 MOL      0.385531
@<TRIPOS>BOND
     1    1    2 1   
     2    1    4 1   
     3    1    5 1   
     4    1    6 1   
     5    2    3 2   
     6    2    7 1   
     7    7    8 1   
     8    7   15 1   
     9    8    9 1   
    10    8   11 1   
    11    8   16 1   
    12    9   10 2   
    13    9   19 1   
    14   11   12 1   
    15   11   17 1   
    16   11   18 1   
    17   12   13 1   
    18   12   14 1   
    19   19   20 1   
    20   19   28 1   
    21   20   21 1   
    22   20   23 1   
    23   20   29 1   
    24   21   22 2   
    25   21   41 1   
    26   23   24 1   
    27   23   30 1   
    28   23   31 1   
    29   24   25 1   
    30   24   32 1   
    31   24   33 1   
    32   25   26 1   
    33   25   34 1   
    34   25   35 1   
    35   26   27 1   
    36   26   36 1   
    37   26   37 1   
    38   27   38 1   
    39   27   39 1   
    40   27   40 1   
    41   41   42 1   
    42   41   49 1   
    43   42   43 1   
    44   42   45 1   
    45   42   50 1   
    46   43   44 2   
    47   43   53 1   
    48   45   46 1   
    49   45   51 1   
    50   45   52 1   
    51   46   47 1   
    52   46   48 1   
    53   53   54 1   
    54   53   57 1   
    55   54   55 1   
    56   54   58 1   
    57   54   59 1   
    58   55   56 2   
    59   55   60 1   
    60   60   61 1   
    61   60   68 1   
    62   61   62 1   
    63   61   64 1   
    64   61   69 1   
    65   62   63 2   
    66   62   72 1   
    67   64   65 1   
    68   64   70 1   
    69   64   71 1   
    70   65   66 1   
    71   65   67 1   
    72   72   73 1   
    73   72   76 1   
    74   73   74 1   
    75   73   77 1   
    76   73   78 1   
    77   74   75 2   
    78   74   79 1   
    79   79   80 1   
    80   79   86 1   
    81   80   81 1   
    82   80   83 1   
    83   80   87 1   
    84   81   82 2   
    85   81   93 1   
    86   83   84 1   
    87   83   85 1   
    88   83   88 1   
    89   84   90 1   
    90   84   91 1   
    91   84   92 1   
    92   85   89 1   
    93   93   94 1   
    94   93  101 1   
    95   94   95 1   
    96   94   97 1   
    97   94  102 1   
    98   95   96 2   
    99   95  112 1   
   100   97   98 1   
   101   97   99 1   
   102   97  103 1   
   103   98  100 1   
   104   98  104 1   
   105   98  105 1   
   106   99  106 1   
   107   99  107 1   
   108   99  108 1   
   109  100  109 1   
   110  100  110 1   
   111  100  111 1   
   112  112  113 1   
   113  112  119 1   
   114  113  114 1   
   115  113  116 1   
   116  113  120 1   
   117  114  115 2   
   118  114  126 1   
   119  116  117 1   
   120  116  118 1   
   121  116  121 1   
   122  117  123 1   
   123  117  124 1   
   124  117  125 1   
   125  118  122 1   
   126  126  127 1   
   127  126  133 1   
   128  127  128 1   
   129  127  130 1   
   130  127  134 1   
   131  128  129 2   
   132  128  140 1   
   133  130  131 1   
   134  130  132 1   
   135  130  135 1   
   136  131  137 1   
   137  131  138 1   
   138  131  139 1   
   139  132  136 1   
   140  140  141 1   
   141  140  149 1   
   142  141  142 1   
   143  141  144 1   
   144  141  150 1   
   145  142  143 2   
   146  142  162 1   
   147  144  145 1   
   148  144  151 1   
   149  144  152 1   
   150  145  146 1   
   151  145  153 1   
   152  145  154 1   
   153  146  147 1   
   154  146  155 1   
   155  146  156 1   
   156  147  148 1   
   157  147  157 1   
   158  147  158 1   
   159  148  159 1   
   160  148  160 1   
   161  148  161 1   
   162  162  163 1   
   163  162  171 1   
   164  163  164 1   
   165  163  166 1   
   166  163  172 1   
   167  164  165 2   
   168  164  177 1   
   169  166  167 1   
   170  166  173 1   
   171  166  174 1   
   172  167  168 1   
   173  167  175 1   
   174  167  176 1   
   175  168  169 1   
   176  168  170 1   
   177  177  178 1   
   178  177  182 1   
   179  178  179 1   
   180  178  180 1   
   181  178  181 1   
   182  184  185 1   
   183  184  186 1   
   184  187  188 1   
   185  187  189 1   
@<TRIPOS>SUBSTRUCTURE
     1 MOL         1 TEMP              0 ****  ****    0 ROOT
