@<TRIPOS>MOLECULE
MOL
  186   183     1     0     0
SMALL
resp


@<TRIPOS>ATOM
      1 C1         -0.3680   -2.1900    6.1450 c3        1 MOL     -0.384478
      2 C2          0.2060   -2.2710    4.7080 c         1 MOL      0.690994
      3 O1         -0.3860   -3.0470    3.9530 o         1 MOL     -0.563477
      4 H1          0.3080   -1.6110    6.7740 hc        1 MOL      0.087587
      5 H2         -1.3440   -1.7050    6.1210 hc        1 MOL      0.087587
      6 H3         -0.4700   -3.1950    6.5530 hc        1 MOL      0.087587
      7 N1          1.3090   -1.6190    4.3600 n         1 MOL     -0.510764
      8 C3          1.9970   -1.7040    3.0320 c3        1 MOL      0.110763
      9 C4          2.4800   -3.0960    2.7260 c         1 MOL      0.555951
     10 O2          3.0450   -3.7300    3.6210 o         1 MOL     -0.579358
     11 C5          3.1540   -0.6420    2.9220 c3        1 MOL     -0.410605
     12 C6          3.9980   -0.6830    1.6200 c         1 MOL      0.827005
     13 O3          5.1270   -0.1940    1.6160 o         1 MOL     -0.658222
     14 O4          3.3660   -1.0780    0.5510 o         1 MOL     -0.658222
     15 H4          1.8100   -1.1950    5.1170 hn        1 MOL      0.301553
     16 H5          1.2410   -1.3730    2.3200 h1        1 MOL      0.080079
     17 H6          3.8360   -0.8710    3.7560 hc        1 MOL      0.085109
     18 H7          2.7350    0.3380    3.1200 hc        1 MOL      0.085109
     19 N2          2.2240   -3.6020    1.5020 n         1 MOL     -0.255590
     20 C7          2.5400   -4.9990    1.0370 c3        1 MOL     -0.083664
     21 C8          3.7970   -5.0290    0.1890 c         1 MOL      0.558322
     22 O5          4.5410   -6.0360    0.2420 o         1 MOL     -0.585985
     23 C9          1.2710   -5.5360    0.2240 c3        1 MOL      0.185807
     24 C10         0.0170   -5.6960    1.2160 c3        1 MOL      0.103254
     25 C11         1.4560   -6.8060   -0.5710 c3        1 MOL     -0.324735
     26 C12        -1.3030   -5.8730    0.6160 c3        1 MOL     -0.240265
     27 H8          1.9890   -2.9640    0.7620 hn        1 MOL      0.011813
     28 H9          2.5750   -5.6080    1.9400 h1        1 MOL      0.051604
     29 H10         0.9640   -4.7760   -0.4990 hc        1 MOL      0.085483
     30 H11        -0.0680   -4.7300    1.7030 hc        1 MOL     -0.008951
     31 H12         0.1480   -6.4500    1.9860 hc        1 MOL     -0.008951
     32 H13         2.0710   -7.5660   -0.1070 hc        1 MOL      0.062439
     33 H14         0.5070   -7.2970   -0.7990 hc        1 MOL      0.062439
     34 H15         1.9280   -6.4950   -1.5110 hc        1 MOL      0.062439
     35 H16        -1.4500   -6.9050    0.3060 hc        1 MOL      0.046664
     36 H17        -2.0490   -5.5430    1.3350 hc        1 MOL      0.046664
     37 H18        -1.2840   -5.2930   -0.3070 hc        1 MOL      0.046664
     38 N3          4.0130   -3.9650   -0.6030 n         1 MOL     -0.415555
     39 C13         4.9260   -4.1010   -1.7500 c3        1 MOL      0.041685
     40 C14         6.1690   -3.2010   -1.6310 c         1 MOL      0.421696
     41 O6          6.9670   -3.2120   -2.5670 o         1 MOL     -0.538253
     42 C15         4.1730   -3.9500   -3.0860 c3        1 MOL     -0.122644
     43 C16         3.3420   -2.6840   -3.2910 c         1 MOL      0.735240
     44 O7          3.6110   -1.6350   -2.6390 o         1 MOL     -0.700558
     45 O8          2.3950   -2.6830   -4.1050 o         1 MOL     -0.700558
     46 H19         3.4090   -3.1510   -0.5910 hn        1 MOL      0.334270
     47 H20         5.3880   -5.0870   -1.7310 h1        1 MOL      0.081881
     48 H21         3.4710   -4.7930   -3.1680 hc        1 MOL      0.023161
     49 H22         4.8750   -3.9910   -3.9170 hc        1 MOL      0.023161
     50 N4          6.3300   -2.4900   -0.5140 n         1 MOL     -0.185333
     51 C17         7.5530   -1.9050   -0.1150 c3        1 MOL     -0.267898
     52 C18         7.9650   -0.6570   -0.7350 c         1 MOL      0.519891
     53 O9          9.1400   -0.2850   -0.6300 o         1 MOL     -0.597576
     54 H23         5.5470   -2.4470    0.1190 hn        1 MOL      0.184012
     55 H24         8.3400   -2.6590   -0.2310 h1        1 MOL      0.119475
     56 H25         7.5200   -1.7010    0.9540 h1        1 MOL      0.119475
     57 N5          6.9860    0.1440   -1.2470 n         1 MOL     -0.215366
     58 C19         7.2590    1.6030   -1.5250 c3        1 MOL     -0.027944
     59 C20         7.3220    2.4630   -0.2330 c         1 MOL      0.468069
     60 O10         7.8460    3.5660   -0.2940 o         1 MOL     -0.583238
     61 C21         6.2160    2.1820   -2.5520 c3        1 MOL     -0.260855
     62 C22         4.7800    2.0330   -2.0130 c         1 MOL      0.900061
     63 O11         4.5460    1.6000   -0.8800 o         1 MOL     -0.781735
     64 O12         3.8780    2.0770   -2.8390 o         1 MOL     -0.781735
     65 H26         6.0100   -0.1130   -1.1570 hn        1 MOL      0.122415
     66 H27         8.2380    1.6930   -1.9940 h1        1 MOL      0.095633
     67 H28         6.2900    1.5740   -3.4490 hc        1 MOL      0.071897
     68 H29         6.3410    3.2340   -2.8220 hc        1 MOL      0.071897
     69 N6          6.9170    1.9610    0.9200 n         1 MOL     -0.233623
     70 C23         6.7720    2.7020    2.1820 c3        1 MOL      0.087153
     71 C24         5.5190    3.6320    2.1600 c         1 MOL      0.553164
     72 O13         5.5800    4.6810    2.7530 o         1 MOL     -0.620834
     73 H30         6.5970    1.0040    0.8670 hn        1 MOL      0.249929
     74 H31         7.6830    3.2510    2.4350 h1        1 MOL     -0.000661
     75 H32         6.5380    1.9490    2.9270 h1        1 MOL     -0.000661
     76 N7          4.4220    3.2480    1.5870 n         1 MOL     -0.250522
     77 C25         3.1350    4.0500    1.4380 c3        1 MOL     -0.036055
     78 C26         1.9950    3.0180    1.3580 c         1 MOL      0.424945
     79 O14         2.1430    1.8950    0.8890 o         1 MOL     -0.567765
     80 C27         3.1470    4.9190    0.1280 c3        1 MOL      0.079914
     81 C28         4.1390    6.0990    0.0860 c3        1 MOL     -0.265866
     82 C29         4.2600    6.8210   -1.2480 c         1 MOL      0.701992
     83 N8          4.9170    7.9700   -1.2990 n         1 MOL     -0.840940
     84 O15         3.8410    6.3380   -2.3250 o         1 MOL     -0.558340
     85 H33         4.3510    2.3130    1.2240 hn        1 MOL      0.198918
     86 H34         3.0630    4.7620    2.2660 h1        1 MOL      0.061678
     87 H35         2.1320    5.2090   -0.1580 hc        1 MOL      0.015028
     88 H36         3.4690    4.2400   -0.6630 hc        1 MOL      0.015028
     89 H37         5.0870    5.7700    0.5220 hc        1 MOL      0.067622
     90 H38         3.8230    6.8510    0.7990 hc        1 MOL      0.067622
     91 H39         5.5430    8.0770   -0.5160 hn        1 MOL      0.368874
     92 H40         4.9970    8.4340   -2.1960 hn        1 MOL      0.368874
     93 N9          0.8260    3.4210    1.8650 n         1 MOL     -0.326649
     94 C30        -0.3740    2.5280    2.0030 c3        1 MOL      0.005545
     95 C31        -1.4860    3.0270    0.9970 c         1 MOL      0.374953
     96 O16        -1.9450    4.1490    1.1520 o         1 MOL     -0.542253
     97 C32        -0.9670    2.3090    3.4540 c3        1 MOL      0.176603
     98 C33        -2.0590    1.2040    3.5120 c3        1 MOL     -0.116905
     99 C34         0.1610    1.9780    4.4260 c3        1 MOL     -0.116905
    100 H41         0.7610    4.3610    2.2150 hn        1 MOL      0.239412
    101 H42        -0.0450    1.5220    1.7340 h1        1 MOL      0.182090
    102 H43        -1.4930    3.2040    3.7930 hc        1 MOL     -0.019086
    103 H44        -1.6270    0.2140    3.3330 hc        1 MOL      0.004942
    104 H45        -2.6100    1.2770    4.4530 hc        1 MOL      0.004942
    105 H46        -2.7760    1.4630    2.7350 hc        1 MOL      0.004942
    106 H47         0.9340    2.7410    4.4060 hc        1 MOL      0.004942
    107 H48        -0.2680    2.1920    5.4140 hc        1 MOL      0.004942
    108 H49         0.6050    0.9860    4.3570 hc        1 MOL      0.004942
    109 N10        -1.7380    2.1850   -0.0210 n         1 MOL     -0.119521
    110 C35        -2.9460    2.4550   -0.8900 c3        1 MOL     -0.049459
    111 C36        -4.2480    2.0620   -0.1790 c         1 MOL      0.378367
    112 O17        -4.2600    1.2340    0.6980 o         1 MOL     -0.222136
    113 C37        -2.8350    1.6740   -2.1930 c3        1 MOL     -0.181328
    114 C38        -3.8570    2.0810   -3.3050 c         1 MOL      0.655737
    115 N11        -3.4020    2.8410   -4.3320 n         1 MOL     -0.812027
    116 O18        -5.0930    1.8350   -3.3350 o         1 MOL     -0.529994
    117 H50        -1.3530    1.2610    0.1330 hn        1 MOL      0.143846
    118 H51        -3.0010    3.5070   -1.1830 h1        1 MOL      0.064346
    119 H52        -2.9040    0.5990   -1.9840 hc        1 MOL      0.067398
    120 H53        -1.8230    1.8410   -2.5510 hc        1 MOL      0.067398
    121 H54        -2.4220    3.0660   -4.4310 hn        1 MOL      0.379462
    122 H55        -4.0680    3.0370   -5.0650 hn        1 MOL      0.379462
    123 N12        -5.4040    2.6510   -0.5990 n         1 MOL     -0.553183
    124 C39        -6.7070    2.1980   -0.1090 c3        1 MOL      0.074868
    125 C40        -6.8510    0.6680   -0.2130 c         1 MOL      0.733089
    126 O19        -7.2570   -0.0080    0.6960 o         1 MOL     -0.519792
    127 C41        -7.8300    2.8620   -0.9810 c3        1 MOL     -0.113633
    128 C42        -9.1760    2.3560   -0.4580 ca        1 MOL     -0.139937
    129 C43        -9.5670    2.5770    0.8700 ca        1 MOL     -0.015570
    130 C44        -9.9330    1.4380   -1.2210 ca        1 MOL     -0.015570
    131 C45       -10.8270    2.2200    1.2520 ca        1 MOL     -0.391744
    132 C46       -11.2000    1.0130   -0.8220 ca        1 MOL     -0.391744
    133 C47       -11.6360    1.4260    0.4510 ca        1 MOL      0.463030
    134 O20       -12.7310    0.9700    0.9590 oh        1 MOL     -0.497996
    135 H56        -5.3000    3.2410   -1.4180 hn        1 MOL      0.306881
    136 H57        -6.8170    2.4890    0.9290 h1        1 MOL      0.083111
    137 H58        -7.5450    2.6310   -2.0090 hc        1 MOL      0.062361
    138 H59        -7.8570    3.9450   -0.9030 hc        1 MOL      0.062361
    139 H60        -8.8870    3.0060    1.5890 ha        1 MOL      0.102842
    140 H61        -9.3730    1.0980   -2.0850 ha        1 MOL      0.102842
    141 H62       -11.1000    2.4980    2.2540 ha        1 MOL      0.164169
    142 H63       -11.6980    0.2870   -1.4570 ha        1 MOL      0.164169
    143 H64       -13.2500    0.5440    0.2670 ho        1 MOL      0.361953
    144 N13        -6.3510    0.1010   -1.3150 n         1 MOL     -0.624959
    145 C48        -6.2520   -1.3350   -1.6100 c3        1 MOL      0.387499
    146 C49        -5.5580   -2.0490   -0.4290 c         1 MOL      0.088208
    147 O21        -5.9350   -3.1420   -0.0510 o         1 MOL     -0.468033
    148 C50        -5.5070   -1.6180   -2.9260 c3        1 MOL     -0.447585
    149 C51        -5.1720   -3.0710   -3.2080 c3        1 MOL     -0.010564
    150 C52        -4.3080   -3.2100   -4.4460 c         1 MOL      0.701535
    151 O22        -3.4540   -4.0750   -4.3540 o         1 MOL     -0.738638
    152 O23        -4.5990   -2.5220   -5.4960 o         1 MOL     -0.738638
    153 H65        -5.9470    0.6940   -2.0240 hn        1 MOL      0.321762
    154 H66        -7.2660   -1.7090   -1.5240 h1        1 MOL      0.015232
    155 H67        -4.4970   -1.2220   -2.8890 hc        1 MOL      0.092892
    156 H68        -6.0750   -1.1790   -3.7470 hc        1 MOL      0.092892
    157 H69        -5.9940   -3.7850   -3.2630 hc        1 MOL      0.014348
    158 H70        -4.5600   -3.4240   -2.3820 hc        1 MOL      0.014348
    159 N14        -4.4130   -1.5110    0.0210 n         1 MOL      0.017861
    160 C53        -3.7030   -2.1100    1.1500 c3        1 MOL     -0.076802
    161 C54        -4.4620   -1.8650    2.4720 c         1 MOL      0.486552
    162 O24        -4.4060   -2.6700    3.3640 o         1 MOL     -0.554497
    163 C55        -2.2980   -1.4790    1.1900 c3        1 MOL      0.063685
    164 C56        -1.5260   -2.0900   -0.0180 c3        1 MOL     -0.084673
    165 C57        -0.2420   -1.3280   -0.2580 c         1 MOL      0.587078
    166 O25         0.7930   -2.0250   -0.5120 o         1 MOL     -0.713364
    167 O26        -0.1710   -0.0930   -0.2620 o         1 MOL     -0.713364
    168 H71        -4.0910   -0.6210   -0.3310 hn        1 MOL      0.149280
    169 H72        -3.6300   -3.1860    0.9910 h1        1 MOL      0.080713
    170 H73        -1.7450   -1.6640    2.1200 hc        1 MOL      0.040818
    171 H74        -2.4300   -0.4130    1.0660 hc        1 MOL      0.040818
    172 H75        -2.0970   -2.1960   -0.9350 hc        1 MOL      0.073825
    173 H76        -1.2480   -3.1120    0.2370 hc        1 MOL      0.073825
    174 N15        -5.1620   -0.7030    2.6350 n         1 MOL     -0.006478
    175 C58        -5.6580   -0.2290    3.9270 c3        1 MOL     -0.279869
    176 H77        -4.8140   -0.0000    4.5780 h1        1 MOL      0.090700
    177 H78        -6.2570    0.6690    3.7800 h1        1 MOL      0.090700
    178 H79        -6.2710   -1.0040    4.3880 h1        1 MOL      0.090700
    179 H80        -5.2940   -0.0810    1.8530 hn        1 MOL     -0.066445
    180 Ca1         2.2360    0.2900   -1.2570 Ca        1 MOL      1.754781
    181 O27         1.0680    2.8130   -1.6590 oh        1 MOL     -0.856833
    182 H81         1.4220    3.5060   -2.2310 ho        1 MOL      0.406805
    183 H82         0.1430    2.7740   -1.8810 ho        1 MOL      0.406805
    184 O28         1.1430    0.1130   -3.6370 oh        1 MOL     -0.856833
    185 H83         1.3720   -0.6610   -4.1560 ho        1 MOL      0.406805
    186 H84         0.3000    0.3970   -3.9790 ho        1 MOL      0.406805
@<TRIPOS>BOND
     1    1    2 1   
     2    1    4 1   
     3    1    5 1   
     4    1    6 1   
     5    2    3 2   
     6    2    7 1   
     7    7    8 1   
     8    7   15 1   
     9    8    9 1   
    10    8   11 1   
    11    8   16 1   
    12    9   10 2   
    13    9   19 1   
    14   11   12 1   
    15   11   17 1   
    16   11   18 1   
    17   12   13 1   
    18   12   14 1   
    19   19   20 1   
    20   19   27 1   
    21   20   21 1   
    22   20   23 1   
    23   20   28 1   
    24   21   22 2   
    25   21   38 1   
    26   23   24 1   
    27   23   25 1   
    28   23   29 1   
    29   24   26 1   
    30   24   30 1   
    31   24   31 1   
    32   25   32 1   
    33   25   33 1   
    34   25   34 1   
    35   26   35 1   
    36   26   36 1   
    37   26   37 1   
    38   38   39 1   
    39   38   46 1   
    40   39   40 1   
    41   39   42 1   
    42   39   47 1   
    43   40   41 2   
    44   40   50 1   
    45   42   43 1   
    46   42   48 1   
    47   42   49 1   
    48   43   44 1   
    49   43   45 1   
    50   50   51 1   
    51   50   54 1   
    52   51   52 1   
    53   51   55 1   
    54   51   56 1   
    55   52   53 2   
    56   52   57 1   
    57   57   58 1   
    58   57   65 1   
    59   58   59 1   
    60   58   61 1   
    61   58   66 1   
    62   59   60 2   
    63   59   69 1   
    64   61   62 1   
    65   61   67 1   
    66   61   68 1   
    67   62   63 1   
    68   62   64 1   
    69   69   70 1   
    70   69   73 1   
    71   70   71 1   
    72   70   74 1   
    73   70   75 1   
    74   71   72 2   
    75   71   76 1   
    76   76   77 1   
    77   76   85 1   
    78   77   78 1   
    79   77   80 1   
    80   77   86 1   
    81   78   79 2   
    82   78   93 1   
    83   80   81 1   
    84   80   87 1   
    85   80   88 1   
    86   81   82 1   
    87   81   89 1   
    88   81   90 1   
    89   82   83 1   
    90   82   84 2   
    91   83   91 1   
    92   83   92 1   
    93   93   94 1   
    94   93  100 1   
    95   94   95 1   
    96   94   97 1   
    97   94  101 1   
    98   95   96 2   
    99   95  109 1   
   100   97   98 1   
   101   97   99 1   
   102   97  102 1   
   103   98  103 1   
   104   98  104 1   
   105   98  105 1   
   106   99  106 1   
   107   99  107 1   
   108   99  108 1   
   109  109  110 1   
   110  109  117 1   
   111  110  111 1   
   112  110  113 1   
   113  110  118 1   
   114  111  112 2   
   115  111  123 1   
   116  113  114 1   
   117  113  119 1   
   118  113  120 1   
   119  114  115 1   
   120  114  116 2   
   121  115  121 1   
   122  115  122 1   
   123  123  124 1   
   124  123  135 1   
   125  124  125 1   
   126  124  127 1   
   127  124  136 1   
   128  125  126 2   
   129  125  144 1   
   130  127  128 1   
   131  127  137 1   
   132  127  138 1   
   133  128  129 ar  
   134  128  130 ar  
   135  129  131 ar  
   136  129  139 1   
   137  130  132 ar  
   138  130  140 1   
   139  131  133 ar  
   140  131  141 1   
   141  132  133 ar  
   142  132  142 1   
   143  133  134 1   
   144  134  143 1   
   145  144  145 1   
   146  144  153 1   
   147  145  146 1   
   148  145  148 1   
   149  145  154 1   
   150  146  147 2   
   151  146  159 1   
   152  148  149 1   
   153  148  155 1   
   154  148  156 1   
   155  149  150 1   
   156  149  157 1   
   157  149  158 1   
   158  150  151 1   
   159  150  152 1   
   160  159  160 1   
   161  159  168 1   
   162  160  161 1   
   163  160  163 1   
   164  160  169 1   
   165  161  162 2   
   166  161  174 1   
   167  163  164 1   
   168  163  170 1   
   169  163  171 1   
   170  164  165 1   
   171  164  172 1   
   172  164  173 1   
   173  165  166 1   
   174  165  167 1   
   175  174  175 1   
   176  174  179 1   
   177  175  176 1   
   178  175  177 1   
   179  175  178 1   
   180  181  182 1   
   181  181  183 1   
   182  184  185 1   
   183  184  186 1   
@<TRIPOS>SUBSTRUCTURE
     1 MOL         1 TEMP              0 ****  ****    0 ROOT
