@<TRIPOS>MOLECULE
MOL
  179   176     1     0     0
SMALL
resp


@<TRIPOS>ATOM
      1 C1          1.9530    3.4440    4.5170 c3        1 MOL     -0.282144
      2 C2          1.2130    3.1120    3.2580 c         1 MOL      0.690932
      3 O1          1.7540    3.3500    2.1460 o         1 MOL     -0.634515
      4 H1          1.4890    4.3070    4.9940 hc        1 MOL      0.071711
      5 H2          1.9160    2.5910    5.1960 hc        1 MOL      0.071711
      6 H3          2.9910    3.6740    4.2800 hc        1 MOL      0.071711
      7 N1         -0.0860    2.8370    3.2730 n         1 MOL     -0.548923
      8 C3         -0.9470    2.6420    2.1300 c3        1 MOL      0.185393
      9 C4         -1.7850    3.9090    1.8760 c         1 MOL      0.537913
     10 O2         -2.9770    4.1590    2.2570 o         1 MOL     -0.489436
     11 C5         -1.8660    1.4220    2.3910 c3        1 MOL     -0.435745
     12 C6         -2.9130    1.1560    1.3780 c         1 MOL      0.709007
     13 O3         -4.0110    0.8790    1.7570 o         1 MOL     -0.626907
     14 O4         -2.5420    1.2370    0.2000 o         1 MOL     -0.626907
     15 H4         -0.4980    2.7180    4.1900 hn        1 MOL      0.313614
     16 H5         -0.4250    2.3830    1.2040 h1        1 MOL      0.096123
     17 H6         -2.4120    1.6510    3.2970 hc        1 MOL      0.092479
     18 H7         -1.2120    0.5500    2.4380 hc        1 MOL      0.092479
     19 N2         -1.2210    4.7920    1.0550 n         1 MOL     -0.636623
     20 C7         -1.8890    6.0160    0.6090 c3        1 MOL      0.161157
     21 C8         -2.9990    5.8240   -0.3860 c         1 MOL      0.253357
     22 O5         -3.9380    6.5790   -0.4470 o         1 MOL     -0.511842
     23 C9         -0.8740    7.0210   -0.0180 c3        1 MOL     -0.205296
     24 C10         0.5120    7.0740    0.6560 c3        1 MOL      0.235111
     25 C11         1.5100    8.0300   -0.0970 c3        1 MOL     -0.036887
     26 C12         2.9030    7.6610    0.3220 c3        1 MOL     -0.150880
     27 N3          3.2320    7.7170    1.7790 n4        1 MOL     -0.313395
     28 H8         -0.3890    4.5480    0.5220 hn        1 MOL      0.382330
     29 H9         -2.2730    6.4380    1.5290 h1        1 MOL      0.090176
     30 H10        -1.2790    8.0310   -0.0710 hc        1 MOL      0.080879
     31 H11        -0.5820    6.6390   -0.9980 hc        1 MOL      0.080879
     32 H12         0.9970    6.1150    0.7750 hc        1 MOL     -0.042306
     33 H13         0.3080    7.4920    1.6410 hc        1 MOL     -0.042306
     34 H14         1.3510    9.1000    0.0070 hc        1 MOL      0.034759
     35 H15         1.4040    7.8620   -1.1680 hc        1 MOL      0.034759
     36 H16         3.5930    8.3870   -0.0990 hx        1 MOL      0.151216
     37 H17         3.0520    6.6410   -0.0380 hx        1 MOL      0.151216
     38 H18         2.8680    6.8860    2.2340 hn        1 MOL      0.320507
     39 H19         4.2390    7.7220    1.7180 hn        1 MOL      0.320507
     40 H20         2.8390    8.4890    2.2910 hn        1 MOL      0.320507
     41 N4         -2.9180    4.8110   -1.2250 n         1 MOL     -0.072162
     42 C13        -3.9070    4.4490   -2.2670 c3        1 MOL     -0.145687
     43 C14        -5.2190    3.8130   -1.7320 c         1 MOL      0.486850
     44 O6         -6.2080    3.7270   -2.4450 o         1 MOL     -0.526814
     45 C15        -3.2580    3.6560   -3.4010 c3        1 MOL     -0.076281
     46 C16        -2.6670    2.3240   -2.9590 c         1 MOL      0.692621
     47 O7         -1.5590    2.4020   -2.3990 o         1 MOL     -0.731328
     48 O8         -3.2780    1.2480   -2.9880 o         1 MOL     -0.731328
     49 H21        -2.1620    4.1480   -1.1280 hn        1 MOL      0.138756
     50 H22        -4.2810    5.3790   -2.6870 h1        1 MOL      0.127236
     51 H23        -2.4460    4.2330   -3.8490 hc        1 MOL      0.023720
     52 H24        -3.9890    3.4710   -4.1920 hc        1 MOL      0.023720
     53 N5         -5.2680    3.4330   -0.4460 n         1 MOL     -0.190959
     54 C17        -6.4540    2.9320    0.2260 c3        1 MOL     -0.084079
     55 C18        -6.8150    1.4830   -0.1690 c         1 MOL      0.425963
     56 O9         -8.0160    1.1910   -0.0600 o         1 MOL     -0.558099
     57 H25        -4.5190    3.7340    0.1740 hn        1 MOL      0.254052
     58 H26        -7.2600    3.6490    0.1430 h1        1 MOL      0.077221
     59 H27        -6.0940    2.9830    1.2530 h1        1 MOL      0.077221
     60 N6         -5.8960    0.6540   -0.6900 n         1 MOL      0.012852
     61 C19        -6.2830   -0.6440   -1.2350 c3        1 MOL      0.045339
     62 C20        -6.2400   -1.6510   -0.0640 c         1 MOL      0.273185
     63 O10        -6.8060   -2.7160   -0.1840 o         1 MOL     -0.441868
     64 C21        -5.5670   -1.0510   -2.5200 c3        1 MOL     -0.425039
     65 C22        -4.2840   -1.8500   -2.2770 c         1 MOL      0.578958
     66 N7         -4.0480   -2.8130   -3.1580 n         1 MOL     -0.588408
     67 O11        -3.4730   -1.7020   -1.4000 o         1 MOL     -0.402905
     68 H28        -4.9560    1.0130   -0.7630 hn        1 MOL      0.001867
     69 H29        -7.3230   -0.5050   -1.5380 h1        1 MOL      0.106202
     70 H30        -5.3370   -0.1180   -3.0390 hc        1 MOL      0.151782
     71 H31        -6.2140   -1.7610   -3.0390 hc        1 MOL      0.151782
     72 H32        -4.7980   -2.9670   -3.8170 hn        1 MOL      0.303512
     73 H33        -3.1830   -3.3380   -3.1450 hn        1 MOL      0.303512
     74 N8         -5.6330   -1.2590    1.1030 n         1 MOL     -0.189427
     75 C23        -5.5910   -2.1800    2.2090 c3        1 MOL     -0.043353
     76 C24        -4.2980   -3.0940    2.2680 c         1 MOL      0.474398
     77 O12        -4.2680   -4.0260    3.1010 o         1 MOL     -0.574462
     78 H34        -5.2480   -0.3500    1.2970 hn        1 MOL      0.212564
     79 H35        -6.5010   -2.7580    2.3310 h1        1 MOL      0.070705
     80 H36        -5.5130   -1.5810    3.1220 h1        1 MOL      0.070705
     81 N9         -3.2780   -2.8550    1.4750 n         1 MOL     -0.177516
     82 C25        -2.0360   -3.6170    1.5270 c3        1 MOL      0.127715
     83 C26        -0.8060   -2.6410    1.3080 c         1 MOL      0.448778
     84 O13        -0.8680   -1.5890    0.5910 o         1 MOL     -0.585708
     85 C27        -2.0410   -4.6860    0.4300 c3        1 MOL     -0.012491
     86 C28        -3.2440   -5.5300    0.4150 ca        1 MOL     -0.075047
     87 C29        -3.2630   -6.7630    1.0880 ca        1 MOL     -0.039217
     88 C30        -4.3490   -5.1450   -0.3910 ca        1 MOL     -0.039217
     89 C31        -4.3720   -7.5940    1.0390 ca        1 MOL     -0.356816
     90 C32        -5.3660   -6.0780   -0.5190 ca        1 MOL     -0.356816
     91 C33        -5.5100   -7.2350    0.2760 ca        1 MOL      0.471514
     92 O14        -6.5440   -8.1340    0.0470 oh        1 MOL     -0.530792
     93 H37        -3.3700   -2.1210    0.7880 hn        1 MOL      0.080367
     94 H38        -1.9370   -4.1730    2.4570 h1        1 MOL      0.047311
     95 H39        -1.1540   -5.3080    0.4860 hc        1 MOL      0.002692
     96 H40        -2.0670   -4.1030   -0.4890 hc        1 MOL      0.002692
     97 H41        -2.3970   -7.0320    1.6780 ha        1 MOL      0.097849
     98 H42        -4.2390   -4.2530   -0.9860 ha        1 MOL      0.097849
     99 H43        -4.3320   -8.5760    1.4810 ha        1 MOL      0.147670
    100 H44        -6.1790   -5.8070   -1.1730 ha        1 MOL      0.147670
    101 H45        -6.4610   -8.9200    0.5900 ho        1 MOL      0.370396
    102 N10         0.3450   -3.1930    1.8070 n         1 MOL     -0.536052
    103 C34         1.6410   -2.5220    1.7170 c3        1 MOL     -0.015580
    104 C35         2.7090   -3.4590    1.0680 c         1 MOL      0.549904
    105 O15         2.9980   -4.5720    1.5430 o         1 MOL     -0.522491
    106 C36         2.1640   -2.1780    3.1270 c3        1 MOL      0.157643
    107 C37         1.0980   -1.5010    4.0390 c3        1 MOL     -0.051772
    108 C38         3.3100   -1.1750    2.9430 c3        1 MOL     -0.157776
    109 C39         1.5500   -1.3330    5.4770 c3        1 MOL     -0.132027
    110 H46         0.2580   -4.0520    2.3320 hn        1 MOL      0.340364
    111 H47         1.6160   -1.5780    1.1750 h1        1 MOL      0.178831
    112 H48         2.5680   -3.1110    3.5290 hc        1 MOL     -0.007906
    113 H49         0.1320   -1.9850    3.9120 hc        1 MOL      0.036230
    114 H50         0.9830   -0.5040    3.6150 hc        1 MOL      0.036230
    115 H51         3.8710   -1.0020    3.8540 hc        1 MOL      0.015739
    116 H52         4.0300   -1.5580    2.2250 hc        1 MOL      0.015739
    117 H53         2.9080   -0.2030    2.6500 hc        1 MOL      0.015739
    118 H54         1.3190   -2.2190    6.0690 hc        1 MOL      0.036356
    119 H55         2.6170   -1.1550    5.6170 hc        1 MOL      0.036356
    120 H56         1.0110   -0.4960    5.9460 hc        1 MOL      0.036356
    121 N11         3.3320   -3.0180   -0.0930 n         1 MOL     -0.437135
    122 C40         4.4440   -3.6890   -0.7810 c3        1 MOL      0.144680
    123 C41         5.7240   -3.1560   -0.1960 c         1 MOL      0.392169
    124 O16         5.8250   -2.1190    0.4270 o         1 MOL     -0.334483
    125 C42         4.4880   -3.3740   -2.2640 c3        1 MOL     -0.461268
    126 O17         4.5500   -1.9770   -2.3310 oh        1 MOL     -0.353089
    127 H57         2.9660   -2.1900   -0.5310 hn        1 MOL      0.285742
    128 H58         4.3740   -4.7660   -0.5940 h1        1 MOL      0.065025
    129 H59         3.5850   -3.7480   -2.7500 h1        1 MOL      0.184208
    130 H60         5.3810   -3.8610   -2.6530 h1        1 MOL      0.184208
    131 H61         4.4140   -1.7810   -3.2640 ho        1 MOL      0.393458
    132 N12         6.8440   -3.7460   -0.5990 n         1 MOL     -0.448130
    133 C43         8.1820   -3.2400   -0.2060 c3        1 MOL      0.211700
    134 C44         8.4530   -1.8520   -0.7740 c         1 MOL      0.457907
    135 O18         9.1030   -1.1090   -0.1010 o         1 MOL     -0.509051
    136 C45         9.2610   -4.1810   -0.7610 c3        1 MOL     -0.334482
    137 H62         6.7250   -4.6560   -1.0210 hn        1 MOL      0.276002
    138 H63         8.2770   -3.2210    0.8850 h1        1 MOL      0.068804
    139 H64        10.2430   -3.7710   -0.5300 hc        1 MOL      0.098675
    140 H65         9.1790   -5.1080   -0.2040 hc        1 MOL      0.098675
    141 H66         9.0760   -4.2950   -1.8310 hc        1 MOL      0.098675
    142 N13         8.0590   -1.5550   -1.9970 n         1 MOL     -0.432742
    143 C46         8.1690   -0.2230   -2.6260 c3        1 MOL      0.237774
    144 C47         7.3280    0.8420   -1.8690 c         1 MOL      0.263764
    145 O19         7.7840    1.9990   -1.6770 o         1 MOL     -0.502471
    146 C48         7.7710   -0.3960   -4.0820 c3        1 MOL     -0.403535
    147 H67         7.6310   -2.2710   -2.5770 hn        1 MOL      0.271356
    148 H68         9.1720    0.1940   -2.5520 h1        1 MOL      0.073842
    149 H69         6.9130   -1.0570   -4.0940 hc        1 MOL      0.106220
    150 H70         7.4540    0.5750   -4.4560 hc        1 MOL      0.106220
    151 H71         8.6510   -0.6660   -4.6670 hc        1 MOL      0.106220
    152 N14         6.1410    0.4670   -1.3770 n         1 MOL     -0.010146
    153 C49         5.2690    1.3380   -0.5600 c3        1 MOL     -0.058171
    154 C50         5.7450    1.5620    0.8290 c         1 MOL      0.408760
    155 O20         5.6360    2.6360    1.4030 o         1 MOL     -0.574199
    156 C51         3.8180    0.8530   -0.3740 c3        1 MOL      0.066320
    157 C52         3.2160    1.0750   -1.7900 c3        1 MOL     -0.456022
    158 C53         1.7270    0.5860   -1.8010 c         1 MOL      0.895842
    159 O21         1.2520   -0.1870   -2.6310 o         1 MOL     -0.829176
    160 O22         0.9750    1.0100   -0.9690 o         1 MOL     -0.829176
    161 H72         5.8490   -0.4630   -1.6470 hn        1 MOL      0.092393
    162 H73         5.3010    2.3370   -0.9910 h1        1 MOL      0.081170
    163 H74         3.1500    1.3810    0.3090 hc        1 MOL      0.090262
    164 H75         3.9140   -0.2050   -0.0970 hc        1 MOL      0.090262
    165 H76         3.7520    0.5070   -2.5450 hc        1 MOL      0.088130
    166 H77         3.2490    2.1610   -1.8740 hc        1 MOL      0.088130
    167 N15         6.3010    0.5420    1.5120 n         1 MOL      0.010556
    168 C54         7.0140    0.6220    2.7510 c3        1 MOL     -0.355550
    169 H78         6.3140    0.5170    3.5800 h1        1 MOL      0.121048
    170 H79         7.7540   -0.1770    2.7980 h1        1 MOL      0.121048
    171 H80         7.5160    1.5880    2.8200 h1        1 MOL      0.121048
    172 H81         6.3440   -0.3410    1.0320 hn        1 MOL      0.047766
    173 Ca1        -1.3040   -0.1160   -1.6860 Ca        1 MOL      1.745653
    174 O23        -1.5820   -0.7160   -4.4340 oh        1 MOL     -0.831949
    175 H82        -0.9470   -0.1150   -4.8140 ho        1 MOL      0.407350
    176 H83        -2.1160   -0.9980   -5.1760 ho        1 MOL      0.407350
    177 O24        -0.5790   -2.6770   -1.9900 oh        1 MOL     -0.831949
    178 H84         0.1680   -3.1450   -1.5940 ho        1 MOL      0.407350
    179 H85        -0.6810   -3.0890   -2.8450 ho        1 MOL      0.407350
@<TRIPOS>BOND
     1    1    2 1   
     2    1    4 1   
     3    1    5 1   
     4    1    6 1   
     5    2    3 2   
     6    2    7 1   
     7    7    8 1   
     8    7   15 1   
     9    8    9 1   
    10    8   11 1   
    11    8   16 1   
    12    9   10 2   
    13    9   19 1   
    14   11   12 1   
    15   11   17 1   
    16   11   18 1   
    17   12   13 1   
    18   12   14 1   
    19   19   20 1   
    20   19   28 1   
    21   20   21 1   
    22   20   23 1   
    23   20   29 1   
    24   21   22 2   
    25   21   41 1   
    26   23   24 1   
    27   23   30 1   
    28   23   31 1   
    29   24   25 1   
    30   24   32 1   
    31   24   33 1   
    32   25   26 1   
    33   25   34 1   
    34   25   35 1   
    35   26   27 1   
    36   26   36 1   
    37   26   37 1   
    38   27   38 1   
    39   27   39 1   
    40   27   40 1   
    41   41   42 1   
    42   41   49 1   
    43   42   43 1   
    44   42   45 1   
    45   42   50 1   
    46   43   44 2   
    47   43   53 1   
    48   45   46 1   
    49   45   51 1   
    50   45   52 1   
    51   46   47 1   
    52   46   48 1   
    53   53   54 1   
    54   53   57 1   
    55   54   55 1   
    56   54   58 1   
    57   54   59 1   
    58   55   56 2   
    59   55   60 1   
    60   60   61 1   
    61   60   68 1   
    62   61   62 1   
    63   61   64 1   
    64   61   69 1   
    65   62   63 2   
    66   62   74 1   
    67   64   65 1   
    68   64   70 1   
    69   64   71 1   
    70   65   66 1   
    71   65   67 2   
    72   66   72 1   
    73   66   73 1   
    74   74   75 1   
    75   74   78 1   
    76   75   76 1   
    77   75   79 1   
    78   75   80 1   
    79   76   77 2   
    80   76   81 1   
    81   81   82 1   
    82   81   93 1   
    83   82   83 1   
    84   82   85 1   
    85   82   94 1   
    86   83   84 2   
    87   83  102 1   
    88   85   86 1   
    89   85   95 1   
    90   85   96 1   
    91   86   87 ar  
    92   86   88 ar  
    93   87   89 ar  
    94   87   97 1   
    95   88   90 ar  
    96   88   98 1   
    97   89   91 ar  
    98   89   99 1   
    99   90   91 ar  
   100   90  100 1   
   101   91   92 1   
   102   92  101 1   
   103  102  103 1   
   104  102  110 1   
   105  103  104 1   
   106  103  106 1   
   107  103  111 1   
   108  104  105 2   
   109  104  121 1   
   110  106  107 1   
   111  106  108 1   
   112  106  112 1   
   113  107  109 1   
   114  107  113 1   
   115  107  114 1   
   116  108  115 1   
   117  108  116 1   
   118  108  117 1   
   119  109  118 1   
   120  109  119 1   
   121  109  120 1   
   122  121  122 1   
   123  121  127 1   
   124  122  123 1   
   125  122  125 1   
   126  122  128 1   
   127  123  124 2   
   128  123  132 1   
   129  125  126 1   
   130  125  129 1   
   131  125  130 1   
   132  126  131 1   
   133  132  133 1   
   134  132  137 1   
   135  133  134 1   
   136  133  136 1   
   137  133  138 1   
   138  134  135 2   
   139  134  142 1   
   140  136  139 1   
   141  136  140 1   
   142  136  141 1   
   143  142  143 1   
   144  142  147 1   
   145  143  144 1   
   146  143  146 1   
   147  143  148 1   
   148  144  145 2   
   149  144  152 1   
   150  146  149 1   
   151  146  150 1   
   152  146  151 1   
   153  152  153 1   
   154  152  161 1   
   155  153  154 1   
   156  153  156 1   
   157  153  162 1   
   158  154  155 2   
   159  154  167 1   
   160  156  157 1   
   161  156  163 1   
   162  156  164 1   
   163  157  158 1   
   164  157  165 1   
   165  157  166 1   
   166  158  159 1   
   167  158  160 1   
   168  167  168 1   
   169  167  172 1   
   170  168  169 1   
   171  168  170 1   
   172  168  171 1   
   173  174  175 1   
   174  174  176 1   
   175  177  178 1   
   176  177  179 1   
@<TRIPOS>SUBSTRUCTURE
     1 MOL         1 TEMP              0 ****  ****    0 ROOT
