@<TRIPOS>MOLECULE
MOL
  189   185     1     0     0
SMALL
resp


@<TRIPOS>ATOM
      1 C1          0.2090    2.5460    6.3660 c3        1 MOL     -0.243468
      2 C2          0.0420    2.2860    4.8600 c         1 MOL      0.715350
      3 O1          0.8980    2.6920    4.1140 o         1 MOL     -0.585845
      4 H1          0.1270    1.6040    6.9080 hc        1 MOL      0.058129
      5 H2          1.1870    2.9890    6.5530 hc        1 MOL      0.058129
      6 H3         -0.5710    3.2270    6.7060 hc        1 MOL      0.058129
      7 N1         -1.1440    1.8370    4.4570 n         1 MOL     -0.568443
      8 C3         -1.6730    1.8630    3.0770 c3        1 MOL     -0.006982
      9 C4         -2.1480    3.2270    2.5770 c         1 MOL      0.642518
     10 O2         -2.7370    4.0060    3.3440 o         1 MOL     -0.556261
     11 C5         -2.8790    0.9580    3.1280 c3        1 MOL     -0.070966
     12 C6         -3.6890    0.8950    1.7910 c         1 MOL      0.616920
     13 O3         -4.8990    1.0560    1.9460 o         1 MOL     -0.625614
     14 O4         -3.1310    0.8670    0.6870 o         1 MOL     -0.625614
     15 H4         -1.6590    1.3320    5.1700 hn        1 MOL      0.311660
     16 H5         -0.9620    1.3910    2.4040 h1        1 MOL      0.015617
     17 H6         -3.5080    1.1340    4.0060 hc        1 MOL      0.026269
     18 H7         -2.5310   -0.0700    3.2380 hc        1 MOL      0.026269
     19 N2         -1.9550    3.4650    1.2410 n         1 MOL     -0.434316
     20 C7         -2.2290    4.7320    0.5860 c3        1 MOL      0.048973
     21 C8         -3.2780    4.6310   -0.5470 c         1 MOL      0.558960
     22 O5         -3.4830    5.6030   -1.2680 o         1 MOL     -0.608676
     23 C9         -0.9970    5.5300    0.0460 c3        1 MOL     -0.103511
     24 C10        -0.1830    6.0070    1.2910 c3        1 MOL     -0.087488
     25 C11         0.8370    7.1640    0.9460 c3        1 MOL      0.054765
     26 C12         0.0990    8.4730    0.6530 c3        1 MOL      0.129490
     27 N3          1.0590    9.5540    0.3430 n4        1 MOL     -0.464071
     28 H8         -1.5490    2.7310    0.6720 hn        1 MOL      0.289594
     29 H9         -2.7770    5.3130    1.3320 h1        1 MOL      0.049647
     30 H10        -1.3340    6.3790   -0.5540 hc        1 MOL      0.042562
     31 H11        -0.2800    4.8460   -0.4140 hc        1 MOL      0.042562
     32 H12         0.3590    5.1920    1.7700 hc        1 MOL      0.067215
     33 H13        -0.9100    6.4610    1.9700 hc        1 MOL      0.067215
     34 H14         1.5200    6.9540    0.1320 hc        1 MOL     -0.004467
     35 H15         1.3950    7.4240    1.8510 hc        1 MOL     -0.004467
     36 H16        -0.5310    8.6900    1.5170 hx        1 MOL      0.053867
     37 H17        -0.5410    8.1990   -0.1890 hx        1 MOL      0.053867
     38 H18         0.5760   10.3190   -0.1050 hn        1 MOL      0.348755
     39 H19         1.4120    9.9750    1.1890 hn        1 MOL      0.348755
     40 H20         1.8070    9.2520   -0.2670 hn        1 MOL      0.348755
     41 N4         -3.9420    3.5380   -0.8100 n         1 MOL     -0.407914
     42 C13        -4.9580    3.4410   -1.9610 c3        1 MOL      0.004263
     43 C14        -6.1790    2.5360   -1.6280 c         1 MOL      0.354201
     44 O6         -7.1420    2.3360   -2.4280 o         1 MOL     -0.504458
     45 C15        -4.3310    3.0410   -3.3130 c3        1 MOL     -0.142490
     46 C16        -3.1820    2.0030   -3.3190 c         1 MOL      0.813152
     47 O7         -2.7920    1.4440   -2.2660 o         1 MOL     -0.732897
     48 O8         -2.5150    1.7910   -4.3560 o         1 MOL     -0.732897
     49 H21        -3.7370    2.6670   -0.3290 hn        1 MOL      0.330602
     50 H22        -5.3560    4.4560   -2.0420 h1        1 MOL      0.114120
     51 H23        -3.8180    3.8870   -3.7570 hc        1 MOL      0.034740
     52 H24        -5.1160    2.7140   -3.9970 hc        1 MOL      0.034740
     53 N5         -6.2420    1.9950   -0.4070 n         1 MOL     -0.176409
     54 C17        -7.3820    1.2470    0.0740 c3        1 MOL     -0.112411
     55 C18        -7.6380   -0.0580   -0.6400 c         1 MOL      0.354095
     56 O9         -8.7710   -0.4540   -0.8580 o         1 MOL     -0.564888
     57 H25        -5.3520    2.0130    0.0770 hn        1 MOL      0.098967
     58 H26        -8.1660    1.9770   -0.1780 h1        1 MOL      0.104834
     59 H27        -7.4120    1.1630    1.1530 h1        1 MOL      0.104834
     60 N6         -6.6340   -0.6130   -1.1930 n         1 MOL      0.017085
     61 C19        -6.7870   -1.7960   -2.0590 c3        1 MOL     -0.031759
     62 C20        -6.8150   -3.1210   -1.2750 c         1 MOL      0.429453
     63 O10        -7.0330   -4.2000   -1.8360 o         1 MOL     -0.535857
     64 C21        -5.6220   -1.8350   -3.0640 c3        1 MOL     -0.309992
     65 C22        -4.2420   -1.6820   -2.3900 c         1 MOL      0.756656
     66 O11        -3.2620   -1.5390   -3.1100 o         1 MOL     -0.713251
     67 O12        -4.0510   -1.6010   -1.1680 o         1 MOL     -0.713251
     68 H28        -5.6450   -0.4320   -1.0770 hn        1 MOL      0.117691
     69 H29        -7.6910   -1.8310   -2.6680 h1        1 MOL      0.113962
     70 H30        -5.7760   -0.9400   -3.6590 hc        1 MOL      0.106643
     71 H31        -5.7010   -2.6980   -3.7230 hc        1 MOL      0.106643
     72 N7         -6.4440   -3.0500    0.0340 n         1 MOL     -0.318564
     73 C23        -6.5190   -4.2350    0.9050 c3        1 MOL     -0.010181
     74 C24        -5.2360   -4.5800    1.6420 c         1 MOL      0.441682
     75 O13        -5.2690   -5.3350    2.6250 o         1 MOL     -0.559586
     76 H32        -6.1850   -2.1420    0.3650 hn        1 MOL      0.243210
     77 H33        -6.9030   -5.1270    0.4040 h1        1 MOL      0.079380
     78 H34        -7.2630   -4.0520    1.6800 h1        1 MOL      0.079380
     79 N8         -4.0970   -4.1300    1.1170 n         1 MOL     -0.194262
     80 C25        -2.7280   -4.6190    1.4820 c3        1 MOL     -0.099520
     81 C26        -1.6310   -3.5300    1.3650 c         1 MOL      0.685874
     82 O14        -1.8930   -2.3910    1.0060 o         1 MOL     -0.660723
     83 C27        -2.3510   -5.7130    0.4700 c3        1 MOL      0.307165
     84 C28        -3.3300   -6.8560    0.3840 c3        1 MOL     -0.518776
     85 O15        -2.1710   -5.1070   -0.7870 oh        1 MOL     -0.590567
     86 H35        -4.2250   -3.4420    0.3800 hn        1 MOL      0.151224
     87 H36        -2.7110   -4.9580    2.5210 h1        1 MOL      0.082117
     88 H37        -1.3400   -5.9990    0.7920 h1        1 MOL      0.032533
     89 H38        -3.0360   -5.0410   -1.2020 ho        1 MOL      0.405256
     90 H39        -4.1900   -6.4810   -0.1630 hc        1 MOL      0.151977
     91 H40        -2.8870   -7.6140   -0.2580 hc        1 MOL      0.151977
     92 H41        -3.6310   -7.2010    1.3770 hc        1 MOL      0.151977
     93 N9         -0.4020   -3.9960    1.6750 n         1 MOL     -0.548267
     94 C29         0.8100   -3.1680    1.6850 c3        1 MOL      0.161793
     95 C30         1.9000   -3.6390    0.6270 c         1 MOL      0.602863
     96 O16         2.3930   -4.7520    0.6230 o         1 MOL     -0.584708
     97 C31         1.3110   -2.9920    3.1500 c3        1 MOL      0.006037
     98 C32         0.3220   -1.9910    3.8890 c3        1 MOL      0.133015
     99 C33         2.7420   -2.4540    3.3430 c3        1 MOL     -0.303977
    100 C34         0.3940   -1.9320    5.3710 c3        1 MOL     -0.279003
    101 H42        -0.2610   -4.8660    2.1730 hn        1 MOL      0.284671
    102 H43         0.5880   -2.1760    1.2960 h1        1 MOL     -0.004880
    103 H44         1.2010   -4.0150    3.4960 hc        1 MOL      0.027801
    104 H45        -0.7070   -2.2520    3.6460 hc        1 MOL      0.013491
    105 H46         0.4470   -0.9950    3.4690 hc        1 MOL      0.013491
    106 H47         3.4350   -3.2850    3.1590 hc        1 MOL      0.062930
    107 H48         2.9630   -1.7500    2.5310 hc        1 MOL      0.062930
    108 H49         2.8780   -1.9960    4.3220 hc        1 MOL      0.062930
    109 H50        -0.6020   -1.7710    5.7850 hc        1 MOL      0.064876
    110 H51         0.6180   -2.9570    5.6470 hc        1 MOL      0.064876
    111 H52         1.1180   -1.2150    5.7630 hc        1 MOL      0.064876
    112 N10         2.3010   -2.7040   -0.2100 n         1 MOL     -0.230764
    113 C35         3.4780   -2.8220   -1.0590 c3        1 MOL     -0.044694
    114 C36         4.8460   -2.4920   -0.4000 c         1 MOL      0.384914
    115 O17         4.8570   -1.7290    0.5400 o         1 MOL     -0.324891
    116 C37         3.3410   -1.9530   -2.2820 c3        1 MOL      0.399504
    117 C38         2.1330   -2.3530   -3.1420 c3        1 MOL     -0.185742
    118 O18         3.1100   -0.6570   -1.8480 oh        1 MOL     -0.759272
    119 H53         1.9480   -1.7720   -0.0260 hn        1 MOL      0.145749
    120 H54         3.5360   -3.8230   -1.4870 h1        1 MOL      0.066180
    121 H55         4.2090   -2.0610   -2.9360 h1        1 MOL     -0.027612
    122 H56         2.2830   -0.5620   -1.3760 ho        1 MOL      0.448549
    123 H57         2.2950   -3.2840   -3.6890 hc        1 MOL      0.038480
    124 H58         1.3170   -2.5150   -2.4560 hc        1 MOL      0.038480
    125 H59         1.7790   -1.7180   -3.9540 hc        1 MOL      0.038480
    126 N11         5.9340   -2.9250   -1.0250 n         1 MOL     -0.304401
    127 C39         7.3780   -2.7830   -0.7040 c3        1 MOL      0.073494
    128 C40         7.6810   -1.2770   -0.4710 c         1 MOL      0.260558
    129 O19         8.5100   -0.9930    0.4230 o         1 MOL     -0.472246
    130 C41         8.2600   -3.2340   -1.8590 c3        1 MOL      0.379510
    131 C42         9.7640   -3.2050   -1.5610 c3        1 MOL     -0.382255
    132 O20         8.0810   -4.5740   -2.3640 oh        1 MOL     -0.616208
    133 H60         5.7280   -3.4990   -1.8280 hn        1 MOL      0.200482
    134 H61         7.6360   -3.3430    0.1910 h1        1 MOL      0.113770
    135 H62         8.1690   -2.4740   -2.6340 h1        1 MOL     -0.071056
    136 H63         8.6680   -4.6900   -3.1100 ho        1 MOL      0.398896
    137 H64        10.4090   -3.6270   -2.3350 hc        1 MOL      0.105850
    138 H65        10.0960   -2.2060   -1.2880 hc        1 MOL      0.105850
    139 H66         9.8930   -3.9110   -0.7430 hc        1 MOL      0.105850
    140 N12         6.9940   -0.3220   -1.1440 n         1 MOL      0.009356
    141 C43         7.1590    1.1010   -1.0040 c3        1 MOL     -0.224997
    142 C44         6.2400    1.9000    0.0180 c         1 MOL      0.459237
    143 O21         6.7560    2.9060    0.5230 o         1 MOL     -0.507609
    144 C45         7.0910    1.7880   -2.3810 c3        1 MOL      0.018548
    145 C46         5.6670    1.9050   -2.9750 c3        1 MOL      0.048203
    146 C47         5.5750    2.5120   -4.4050 c3        1 MOL     -0.268225
    147 C48         4.1190    2.5130   -4.8520 c3        1 MOL      0.204208
    148 N13         4.0160    2.7880   -6.3530 n4        1 MOL     -0.354227
    149 H67         6.4180   -0.6310   -1.9170 hn        1 MOL      0.122269
    150 H68         8.1550    1.3490   -0.6170 h1        1 MOL      0.153673
    151 H69         7.6600    1.2200   -3.1210 hc        1 MOL      0.026593
    152 H70         7.6090    2.7440   -2.3960 hc        1 MOL      0.026593
    153 H71         5.1080    2.5780   -2.3230 hc        1 MOL      0.066592
    154 H72         5.2450    0.9140   -3.1650 hc        1 MOL      0.066592
    155 H73         6.2380    1.8520   -4.9740 hc        1 MOL      0.073792
    156 H74         5.9900    3.5160   -4.2640 hc        1 MOL      0.073792
    157 H75         3.5430    3.3000   -4.3630 hx        1 MOL      0.059359
    158 H76         3.6290    1.5830   -4.5670 hx        1 MOL      0.059359
    159 H77         3.0470    2.8050   -6.6230 hn        1 MOL      0.306072
    160 H78         4.2230    3.7310   -6.6380 hn        1 MOL      0.306072
    161 H79         4.4780    2.1250   -6.9500 hn        1 MOL      0.306072
    162 N14         5.0740    1.3290    0.3440 n         1 MOL     -0.157445
    163 C49         4.4300    1.5930    1.5990 c3        1 MOL     -0.133856
    164 C50         5.2720    1.0010    2.7790 c         1 MOL      0.505355
    165 O22         5.1990    1.6290    3.8350 o         1 MOL     -0.523216
    166 C51         2.9480    1.0770    1.5880 c3        1 MOL      0.184109
    167 C52         1.9500    1.8520    0.7240 c3        1 MOL     -0.018965
    168 C53         0.8040    1.0210    0.1690 c         1 MOL      0.683789
    169 O23        -0.2790    1.5770   -0.1040 o         1 MOL     -0.731956
    170 O24         0.8160   -0.2190   -0.0800 o         1 MOL     -0.731956
    171 H80         4.9550    0.3870    0.0210 hn        1 MOL     -0.117090
    172 H81         4.3030    2.6700    1.7440 h1        1 MOL      0.098120
    173 H82         2.5470    1.0450    2.6020 hc        1 MOL      0.016146
    174 H83         2.9560    0.0330    1.2890 hc        1 MOL      0.016146
    175 H84         2.5490    2.3000   -0.0670 hc        1 MOL     -0.003909
    176 H85         1.6610    2.6350    1.4200 hc        1 MOL     -0.003909
    177 N15         6.0370   -0.1730    2.5790 n         1 MOL     -0.188583
    178 C54         6.8460   -0.7830    3.6480 c3        1 MOL     -0.231455
    179 H86         6.3810   -1.7160    3.9690 h1        1 MOL      0.098108
    180 H87         7.8490   -0.9890    3.2740 h1        1 MOL      0.098108
    181 H88         6.9070   -0.0990    4.4940 h1        1 MOL      0.098108
    182 H89         6.0140   -0.6940    1.7190 hn        1 MOL      0.210464
    183 Ca1        -1.7170   -0.4620   -0.9110 Ca        1 MOL      1.753714
    184 O25        -1.2630   -2.8670   -2.0090 oh        1 MOL     -0.809403
    185 H90        -1.9070   -2.6450   -2.6840 ho        1 MOL      0.375722
    186 H91        -1.4990   -3.7580   -1.7470 ho        1 MOL      0.375722
    187 O26        -0.3890    0.0560   -3.1720 oh        1 MOL     -0.809403
    188 H92        -0.9550    0.5560   -3.7590 ho        1 MOL      0.375722
    189 H93         0.4530   -0.0010   -3.6240 ho        1 MOL      0.375722
@<TRIPOS>BOND
     1    1    2 1   
     2    1    4 1   
     3    1    5 1   
     4    1    6 1   
     5    2    3 2   
     6    2    7 1   
     7    7    8 1   
     8    7   15 1   
     9    8    9 1   
    10    8   11 1   
    11    8   16 1   
    12    9   10 2   
    13    9   19 1   
    14   11   12 1   
    15   11   17 1   
    16   11   18 1   
    17   12   13 1   
    18   12   14 1   
    19   19   20 1   
    20   19   28 1   
    21   20   21 1   
    22   20   23 1   
    23   20   29 1   
    24   21   22 2   
    25   21   41 1   
    26   23   24 1   
    27   23   30 1   
    28   23   31 1   
    29   24   25 1   
    30   24   32 1   
    31   24   33 1   
    32   25   26 1   
    33   25   34 1   
    34   25   35 1   
    35   26   27 1   
    36   26   36 1   
    37   26   37 1   
    38   27   38 1   
    39   27   39 1   
    40   27   40 1   
    41   41   42 1   
    42   41   49 1   
    43   42   43 1   
    44   42   45 1   
    45   42   50 1   
    46   43   44 2   
    47   43   53 1   
    48   45   46 1   
    49   45   51 1   
    50   45   52 1   
    51   46   47 1   
    52   46   48 1   
    53   53   54 1   
    54   53   57 1   
    55   54   55 1   
    56   54   58 1   
    57   54   59 1   
    58   55   56 2   
    59   55   60 1   
    60   60   61 1   
    61   60   68 1   
    62   61   62 1   
    63   61   64 1   
    64   61   69 1   
    65   62   63 2   
    66   62   72 1   
    67   64   65 1   
    68   64   70 1   
    69   64   71 1   
    70   65   66 1   
    71   65   67 1   
    72   72   73 1   
    73   72   76 1   
    74   73   74 1   
    75   73   77 1   
    76   73   78 1   
    77   74   75 2   
    78   74   79 1   
    79   79   80 1   
    80   79   86 1   
    81   80   81 1   
    82   80   83 1   
    83   80   87 1   
    84   81   82 2   
    85   81   93 1   
    86   83   84 1   
    87   83   85 1   
    88   83   88 1   
    89   84   90 1   
    90   84   91 1   
    91   84   92 1   
    92   85   89 1   
    93   93   94 1   
    94   93  101 1   
    95   94   95 1   
    96   94   97 1   
    97   94  102 1   
    98   95   96 2   
    99   95  112 1   
   100   97   98 1   
   101   97   99 1   
   102   97  103 1   
   103   98  100 1   
   104   98  104 1   
   105   98  105 1   
   106   99  106 1   
   107   99  107 1   
   108   99  108 1   
   109  100  109 1   
   110  100  110 1   
   111  100  111 1   
   112  112  113 1   
   113  112  119 1   
   114  113  114 1   
   115  113  116 1   
   116  113  120 1   
   117  114  115 2   
   118  114  126 1   
   119  116  117 1   
   120  116  118 1   
   121  116  121 1   
   122  117  123 1   
   123  117  124 1   
   124  117  125 1   
   125  118  122 1   
   126  126  127 1   
   127  126  133 1   
   128  127  128 1   
   129  127  130 1   
   130  127  134 1   
   131  128  129 2   
   132  128  140 1   
   133  130  131 1   
   134  130  132 1   
   135  130  135 1   
   136  131  137 1   
   137  131  138 1   
   138  131  139 1   
   139  132  136 1   
   140  140  141 1   
   141  140  149 1   
   142  141  142 1   
   143  141  144 1   
   144  141  150 1   
   145  142  143 2   
   146  142  162 1   
   147  144  145 1   
   148  144  151 1   
   149  144  152 1   
   150  145  146 1   
   151  145  153 1   
   152  145  154 1   
   153  146  147 1   
   154  146  155 1   
   155  146  156 1   
   156  147  148 1   
   157  147  157 1   
   158  147  158 1   
   159  148  159 1   
   160  148  160 1   
   161  148  161 1   
   162  162  163 1   
   163  162  171 1   
   164  163  164 1   
   165  163  166 1   
   166  163  172 1   
   167  164  165 2   
   168  164  177 1   
   169  166  167 1   
   170  166  173 1   
   171  166  174 1   
   172  167  168 1   
   173  167  175 1   
   174  167  176 1   
   175  168  169 1   
   176  168  170 1   
   177  177  178 1   
   178  177  182 1   
   179  178  179 1   
   180  178  180 1   
   181  178  181 1   
   182  184  185 1   
   183  184  186 1   
   184  187  188 1   
   185  187  189 1   
@<TRIPOS>SUBSTRUCTURE
     1 MOL         1 TEMP              0 ****  ****    0 ROOT
