@<TRIPOS>MOLECULE
MOL
  175   173     1     0     0
SMALL
resp


@<TRIPOS>ATOM
      1 C1          0.0010    3.7360    5.6570 c3        1 MOL     -0.448718
      2 C2         -0.5840    3.9740    4.2360 c         1 MOL      0.733624
      3 O1          0.1790    4.1790    3.3170 o         1 MOL     -0.533212
      4 H1          0.7610    2.9570    5.6100 hc        1 MOL      0.105177
      5 H2          0.4500    4.6590    6.0250 hc        1 MOL      0.105177
      6 H3         -0.7970    3.4250    6.3320 hc        1 MOL      0.105177
      7 N1         -1.9120    3.9560    4.1300 n         1 MOL     -0.661948
      8 C3         -2.4750    3.6260    2.8540 c3        1 MOL      0.254020
      9 C4         -2.6040    4.7050    1.7740 c         1 MOL      0.556905
     10 O2         -2.8980    5.8080    2.1650 o         1 MOL     -0.565712
     11 C5         -3.8100    2.9340    3.0130 c3        1 MOL     -0.210708
     12 C6         -4.3800    2.6900    1.6120 c         1 MOL      0.595442
     13 O3         -5.5060    3.2120    1.2130 o         1 MOL     -0.632905
     14 O4         -3.7590    1.9920    0.7920 o         1 MOL     -0.632905
     15 H4         -2.4810    3.8250    4.9530 hn        1 MOL      0.341931
     16 H5         -1.8800    2.8160    2.4410 h1        1 MOL     -0.009488
     17 H6         -4.5290    3.5660    3.5310 hc        1 MOL      0.030031
     18 H7         -3.7590    1.9840    3.5390 hc        1 MOL      0.030031
     19 N2         -2.4740    4.4100    0.4870 n         1 MOL     -0.514851
     20 C7         -2.8290    5.4050   -0.5430 c3        1 MOL      0.341125
     21 C8         -3.4150    4.8590   -1.8110 c         1 MOL      0.496779
     22 O5         -3.2600    5.3980   -2.9050 o         1 MOL     -0.566558
     23 C9         -1.5970    6.2680   -0.7980 c3        1 MOL     -0.272655
     24 H8         -2.0880    3.5120    0.2430 hn        1 MOL      0.391736
     25 H9         -3.6220    6.0370   -0.1410 h1        1 MOL      0.008945
     26 H10        -1.2990    6.6270    0.1850 hc        1 MOL      0.056542
     27 H11        -0.7790    5.7230   -1.2620 hc        1 MOL      0.056542
     28 H12        -1.8550    7.1460   -1.3930 hc        1 MOL      0.056542
     29 N3         -4.1520    3.7270   -1.7620 n         1 MOL     -0.421283
     30 C10        -4.8960    3.1230   -2.9190 c3        1 MOL      0.049932
     31 C11        -6.1470    2.3190   -2.5770 c         1 MOL      0.316285
     32 O6         -6.9140    1.9040   -3.4270 o         1 MOL     -0.547037
     33 C12        -3.8920    2.2650   -3.7670 c3        1 MOL     -0.042170
     34 C13        -3.1840    1.2340   -2.8910 c         1 MOL      0.541786
     35 O7         -3.7680    0.5280   -2.0350 o         1 MOL     -0.639454
     36 O8         -1.9620    1.4050   -2.6670 o         1 MOL     -0.639454
     37 H13        -4.1410    3.1710   -0.9170 hn        1 MOL      0.222600
     38 H14        -5.2120    3.9350   -3.5730 h1        1 MOL      0.086990
     39 H15        -3.1260    2.8240   -4.3000 hc        1 MOL      0.026056
     40 H16        -4.4920    1.7800   -4.5340 hc        1 MOL      0.026056
     41 N4         -6.3460    2.0310   -1.3220 n         1 MOL      0.065466
     42 C14        -7.4980    1.3090   -0.8390 c3        1 MOL     -0.468052
     43 C15        -7.4770   -0.1930   -1.1960 c         1 MOL      0.521231
     44 O9         -8.4900   -0.8880   -1.0050 o         1 MOL     -0.588603
     45 H17        -5.6730    2.4430   -0.6770 hn        1 MOL      0.065511
     46 H18        -8.3570    1.6310   -1.4310 h1        1 MOL      0.178578
     47 H19        -7.6460    1.3900    0.2440 h1        1 MOL      0.178578
     48 N5         -6.3400   -0.7460   -1.7630 n         1 MOL     -0.189275
     49 C16        -6.3230   -2.1970   -2.1280 c3        1 MOL     -0.199724
     50 C17        -6.4400   -3.2620   -1.0040 c         1 MOL      0.569035
     51 O10        -6.8340   -4.4000   -1.3180 o         1 MOL     -0.582491
     52 C18        -5.0870   -2.3770   -3.0820 c3        1 MOL     -0.078501
     53 C19        -3.6760   -2.3500   -2.4450 c         1 MOL      0.484681
     54 N6         -2.6270   -2.3820   -3.2410 n         1 MOL     -0.695518
     55 O11        -3.4690   -2.3960   -1.2820 o         1 MOL     -0.368872
     56 H20        -5.5690   -0.1190   -1.9060 hn        1 MOL      0.225371
     57 H21        -7.2810   -2.2790   -2.6380 h1        1 MOL      0.132138
     58 H22        -5.2460   -1.7930   -3.9880 hc        1 MOL      0.046038
     59 H23        -5.1890   -3.4130   -3.3990 hc        1 MOL      0.046038
     60 H24        -2.7450   -2.4140   -4.2390 hn        1 MOL      0.337117
     61 H25        -1.7250   -2.2870   -2.8080 hn        1 MOL      0.337117
     62 N7         -6.3310   -2.8780    0.2230 n         1 MOL     -0.240169
     63 C20        -6.3730   -3.7720    1.4340 c3        1 MOL     -0.140171
     64 C21        -4.9750   -4.3140    1.8500 c         1 MOL      0.490983
     65 O12        -4.8120   -5.1760    2.6980 o         1 MOL     -0.583583
     66 H26        -6.0170   -1.9370    0.3710 hn        1 MOL      0.222989
     67 H27        -6.9820   -4.6420    1.1950 h1        1 MOL      0.100136
     68 H28        -6.8530   -3.2140    2.2380 h1        1 MOL      0.100136
     69 N8         -3.8520   -3.9100    1.2270 n         1 MOL      0.002508
     70 C22        -2.4510   -4.3400    1.4960 c3        1 MOL     -0.395287
     71 C23        -1.3300   -3.3310    1.4700 c         1 MOL      0.651709
     72 O13        -1.4570   -2.3600    0.7060 o         1 MOL     -0.543978
     73 C24        -2.0930   -5.4370    0.5650 c3        1 MOL      0.445594
     74 C25        -2.9730   -6.6670    0.7930 c3        1 MOL     -0.634980
     75 O14        -2.2230   -5.0520   -0.7540 oh        1 MOL     -0.566884
     76 H29        -4.0090   -3.1910    0.5430 hn        1 MOL      0.008222
     77 H30        -2.4350   -4.7790    2.4870 h1        1 MOL      0.141026
     78 H31        -1.0120   -5.5850    0.5700 h1        1 MOL      0.011909
     79 H32        -1.9580   -4.1340   -0.8020 ho        1 MOL      0.368195
     80 H33        -4.0450   -6.5850    0.5880 hc        1 MOL      0.165911
     81 H34        -2.4660   -7.4200    0.1940 hc        1 MOL      0.165911
     82 H35        -2.9370   -7.0730    1.7990 hc        1 MOL      0.165911
     83 N9         -0.2740   -3.5190    2.2290 n         1 MOL     -0.523064
     84 C26         0.8950   -2.7830    1.9750 c3        1 MOL      0.042460
     85 C27         1.6580   -3.2030    0.7060 c         1 MOL      0.404406
     86 O15         1.5090   -4.3090    0.1930 o         1 MOL     -0.545062
     87 C28         1.8050   -2.9330    3.2600 c3        1 MOL      0.123801
     88 C29         1.2160   -2.2240    4.5070 c3        1 MOL      0.189236
     89 C30         3.1910   -2.3680    2.9440 c3        1 MOL     -0.212523
     90 C31         1.9000   -2.3980    5.8820 c3        1 MOL     -0.196965
     91 H36        -0.2510   -4.4210    2.7030 hn        1 MOL      0.289647
     92 H37         0.7440   -1.7100    1.9000 h1        1 MOL     -0.000141
     93 H38         1.8120   -4.0000    3.5090 hc        1 MOL     -0.017978
     94 H39         0.1810   -2.5220    4.6920 hc        1 MOL     -0.037976
     95 H40         1.1740   -1.1560    4.2720 hc        1 MOL     -0.037976
     96 H41         3.8060   -2.6590    3.8000 hc        1 MOL      0.030784
     97 H42         3.6030   -2.8390    2.0560 hc        1 MOL      0.030784
     98 H43         3.1040   -1.2930    2.7740 hc        1 MOL      0.030784
     99 H44         2.9200   -2.0360    5.9190 hc        1 MOL      0.036248
    100 H45         1.2820   -1.8200    6.5750 hc        1 MOL      0.036248
    101 H46         1.9080   -3.4790    6.0460 hc        1 MOL      0.036248
    102 N10         2.0340   -2.1640   -0.0330 n         1 MOL     -0.007843
    103 C32         2.8000   -2.1140   -1.2950 c3        1 MOL      0.017945
    104 C33         4.2130   -1.6310   -0.9610 c         1 MOL      0.372298
    105 O16         4.4280   -1.0890    0.1090 o         1 MOL     -0.273056
    106 C34         2.1940   -1.1760   -2.3950 c3        1 MOL     -0.154244
    107 C35         0.6670   -1.3460   -2.6980 c         1 MOL      0.630880
    108 O17        -0.2390   -1.2090   -1.8210 o         1 MOL     -0.638775
    109 O18         0.3410   -1.5380   -3.8430 o         1 MOL     -0.638775
    110 H47         1.5710   -1.3190    0.2830 hn        1 MOL      0.008364
    111 H48         2.8740   -3.1180   -1.7040 h1        1 MOL      0.068096
    112 H49         2.7390   -1.1670   -3.3410 hc        1 MOL      0.054622
    113 H50         2.2760   -0.1690   -1.9890 hc        1 MOL      0.054622
    114 N11         5.3470   -1.8610   -1.7060 n         1 MOL     -0.631403
    115 C36         6.7490   -1.5310   -1.3330 c3        1 MOL      0.270900
    116 C37         6.9150   -0.0050   -0.9510 c         1 MOL      0.358463
    117 O19         7.5230    0.2400    0.1110 o         1 MOL     -0.482627
    118 C38         7.7820   -1.9050   -2.3950 c3        1 MOL     -0.086194
    119 C39         9.2180   -1.5290   -2.1150 ca        1 MOL     -0.032086
    120 C40         9.8910   -0.5330   -2.8840 ca        1 MOL     -0.103074
    121 C41         9.9600   -1.9620   -0.9960 ca        1 MOL     -0.103074
    122 C42        11.1670   -0.0810   -2.6840 ca        1 MOL     -0.121585
    123 C43        11.3060   -1.4970   -0.7080 ca        1 MOL     -0.121585
    124 C44        11.8970   -0.5790   -1.5950 ca        1 MOL     -0.095993
    125 H51         5.1660   -2.3560   -2.5660 hn        1 MOL      0.310796
    126 H52         7.0140   -2.0760   -0.4200 h1        1 MOL      0.072017
    127 H53         7.5640   -1.5600   -3.4110 hc        1 MOL      0.049284
    128 H54         7.7600   -2.9840   -2.5400 hc        1 MOL      0.049284
    129 H55         9.4740   -0.2070   -3.8210 ha        1 MOL      0.088841
    130 H56         9.4780   -2.7580   -0.4510 ha        1 MOL      0.088841
    131 H57        11.6740    0.6030   -3.3530 ha        1 MOL      0.113824
    132 H58        11.8480   -1.9010    0.1340 ha        1 MOL      0.113824
    133 H59        12.9340   -0.2790   -1.4780 ha        1 MOL      0.094566
    134 N12         6.4030    1.0000   -1.7030 n         1 MOL     -0.105845
    135 C45         6.4750    2.4510   -1.3820 c3        1 MOL      0.041230
    136 C46         5.7990    2.7240   -0.0040 c         1 MOL      0.190806
    137 O20         5.9920    3.7570    0.6600 o         1 MOL     -0.487769
    138 C47         5.7800    3.1540   -2.5190 c3        1 MOL     -0.084692
    139 C48         5.8490    2.1850   -3.7040 c3        1 MOL     -0.139673
    140 C49         5.6620    0.8780   -2.9260 c3        1 MOL     -0.025835
    141 H60         7.5520    2.5930   -1.3130 h1        1 MOL      0.092841
    142 H61         4.7410    3.4200   -2.3590 hc        1 MOL      0.074570
    143 H62         6.3760    4.0120   -2.8330 hc        1 MOL      0.074570
    144 H63         5.0280    2.3040   -4.4100 hc        1 MOL      0.064543
    145 H64         6.8570    2.1360   -4.1130 hc        1 MOL      0.064543
    146 H65         4.6650    0.7360   -2.5120 h1        1 MOL      0.052952
    147 H66         5.9900    0.0260   -3.5220 h1        1 MOL      0.052952
    148 N13         4.8430    1.8790    0.4320 n         1 MOL     -0.000706
    149 C50         4.1570    1.9360    1.7050 c3        1 MOL     -0.000396
    150 C51         4.9180    1.1230    2.7940 c         1 MOL      0.482078
    151 O21         5.0250    1.6210    3.8870 o         1 MOL     -0.569962
    152 C52         2.7510    1.4650    1.5550 c3        1 MOL     -0.208903
    153 C53         1.8500    2.3290    0.6290 c3        1 MOL     -0.001839
    154 C54         0.3970    1.7390    0.5260 c         1 MOL      0.617819
    155 O22         0.1550    0.5910    1.0740 o         1 MOL     -0.709012
    156 O23        -0.5390    2.3580    0.0650 o         1 MOL     -0.709012
    157 H67         4.6640    1.0330   -0.0970 hn        1 MOL      0.046080
    158 H68         4.0680    2.9430    2.1060 h1        1 MOL      0.090039
    159 H69         2.2460    1.5260    2.5200 hc        1 MOL      0.109534
    160 H70         2.7560    0.4780    1.0940 hc        1 MOL      0.109534
    161 H71         2.2950    2.3870   -0.3730 hc        1 MOL      0.037940
    162 H72         1.6650    3.3620    0.9070 hc        1 MOL      0.037940
    163 N14         5.6670    0.0860    2.3650 n         1 MOL     -0.093708
    164 C55         6.6790   -0.5950    3.2120 c3        1 MOL     -0.119357
    165 H73         7.5850   -0.7610    2.6300 h1        1 MOL      0.052528
    166 H74         6.9120    0.0290    4.0750 h1        1 MOL      0.052528
    167 H75         6.2850   -1.5520    3.5510 h1        1 MOL      0.052528
    168 H76         5.4930   -0.3390    1.4600 hn        1 MOL      0.078691
    169 Ca1        -2.1140   -0.0400   -0.2270 Ca        1 MOL      1.674307
    170 O24        -4.6330   -0.4850    0.9580 oh        1 MOL     -0.820715
    171 H77        -4.6710    0.4650    0.8680 ho        1 MOL      0.398287
    172 H78        -4.9010   -0.6450    1.8700 ho        1 MOL      0.398287
    173 O25        -2.0130   -0.2150    2.6060 oh        1 MOL     -0.820715
    174 H79        -2.2350    0.1300    3.4680 ho        1 MOL      0.398287
    175 H80        -1.0760   -0.0650    2.5250 ho        1 MOL      0.398287
@<TRIPOS>BOND
     1    1    2 1   
     2    1    4 1   
     3    1    5 1   
     4    1    6 1   
     5    2    3 2   
     6    2    7 1   
     7    7    8 1   
     8    7   15 1   
     9    8    9 1   
    10    8   11 1   
    11    8   16 1   
    12    9   10 2   
    13    9   19 1   
    14   11   12 1   
    15   11   17 1   
    16   11   18 1   
    17   12   13 1   
    18   12   14 1   
    19   19   20 1   
    20   19   24 1   
    21   20   21 1   
    22   20   23 1   
    23   20   25 1   
    24   21   22 2   
    25   21   29 1   
    26   23   26 1   
    27   23   27 1   
    28   23   28 1   
    29   29   30 1   
    30   29   37 1   
    31   30   31 1   
    32   30   33 1   
    33   30   38 1   
    34   31   32 2   
    35   31   41 1   
    36   33   34 1   
    37   33   39 1   
    38   33   40 1   
    39   34   35 1   
    40   34   36 1   
    41   41   42 1   
    42   41   45 1   
    43   42   43 1   
    44   42   46 1   
    45   42   47 1   
    46   43   44 2   
    47   43   48 1   
    48   48   49 1   
    49   48   56 1   
    50   49   50 1   
    51   49   52 1   
    52   49   57 1   
    53   50   51 2   
    54   50   62 1   
    55   52   53 1   
    56   52   58 1   
    57   52   59 1   
    58   53   54 1   
    59   53   55 2   
    60   54   60 1   
    61   54   61 1   
    62   62   63 1   
    63   62   66 1   
    64   63   64 1   
    65   63   67 1   
    66   63   68 1   
    67   64   65 2   
    68   64   69 1   
    69   69   70 1   
    70   69   76 1   
    71   70   71 1   
    72   70   73 1   
    73   70   77 1   
    74   71   72 2   
    75   71   83 1   
    76   73   74 1   
    77   73   75 1   
    78   73   78 1   
    79   74   80 1   
    80   74   81 1   
    81   74   82 1   
    82   75   79 1   
    83   83   84 1   
    84   83   91 1   
    85   84   85 1   
    86   84   87 1   
    87   84   92 1   
    88   85   86 2   
    89   85  102 1   
    90   87   88 1   
    91   87   89 1   
    92   87   93 1   
    93   88   90 1   
    94   88   94 1   
    95   88   95 1   
    96   89   96 1   
    97   89   97 1   
    98   89   98 1   
    99   90   99 1   
   100   90  100 1   
   101   90  101 1   
   102  102  103 1   
   103  102  110 1   
   104  103  104 1   
   105  103  106 1   
   106  103  111 1   
   107  104  105 2   
   108  104  114 1   
   109  106  107 1   
   110  106  112 1   
   111  106  113 1   
   112  107  108 1   
   113  107  109 1   
   114  114  115 1   
   115  114  125 1   
   116  115  116 1   
   117  115  118 1   
   118  115  126 1   
   119  116  117 2   
   120  116  134 1   
   121  118  119 1   
   122  118  127 1   
   123  118  128 1   
   124  119  120 ar  
   125  119  121 ar  
   126  120  122 ar  
   127  120  129 1   
   128  121  123 ar  
   129  121  130 1   
   130  122  124 ar  
   131  122  131 1   
   132  123  124 ar  
   133  123  132 1   
   134  124  133 1   
   135  134  135 1   
   136  134  140 1   
   137  135  136 1   
   138  135  138 1   
   139  135  141 1   
   140  136  137 2   
   141  136  148 1   
   142  138  139 1   
   143  138  142 1   
   144  138  143 1   
   145  139  140 1   
   146  139  144 1   
   147  139  145 1   
   148  140  146 1   
   149  140  147 1   
   150  148  149 1   
   151  148  157 1   
   152  149  150 1   
   153  149  152 1   
   154  149  158 1   
   155  150  151 2   
   156  150  163 1   
   157  152  153 1   
   158  152  159 1   
   159  152  160 1   
   160  153  154 1   
   161  153  161 1   
   162  153  162 1   
   163  154  155 1   
   164  154  156 1   
   165  163  164 1   
   166  163  168 1   
   167  164  165 1   
   168  164  166 1   
   169  164  167 1   
   170  170  171 1   
   171  170  172 1   
   172  173  174 1   
   173  173  175 1   
@<TRIPOS>SUBSTRUCTURE
     1 MOL         1 TEMP              0 ****  ****    0 ROOT
