@<TRIPOS>MOLECULE
MOL
  179   176     1     0     0
SMALL
resp


@<TRIPOS>ATOM
      1 C1          2.3690    3.2670    4.2600 c3        1 MOL     -0.404582
      2 C2          1.4270    3.1040    3.0260 c         1 MOL      0.644134
      3 O1          1.8590    3.1800    1.8700 o         1 MOL     -0.578131
      4 H1          1.9780    4.0460    4.9140 hc        1 MOL      0.107590
      5 H2          2.4200    2.3250    4.8070 hc        1 MOL      0.107590
      6 H3          3.3680    3.5450    3.9210 hc        1 MOL      0.107590
      7 N1          0.1220    2.9110    3.2480 n         1 MOL     -0.585275
      8 C3         -0.8640    2.6990    2.2350 c3        1 MOL      0.181684
      9 C4         -1.3240    4.0180    1.7070 c         1 MOL      0.591043
     10 O2         -2.4820    4.3540    1.9220 o         1 MOL     -0.470603
     11 C5         -1.9700    1.7180    2.6320 c3        1 MOL     -0.283898
     12 C6         -3.0710    1.4290    1.5560 c         1 MOL      0.487383
     13 O3         -4.2600    1.4070    1.9710 o         1 MOL     -0.599011
     14 O4         -2.7280    1.2830    0.3540 o         1 MOL     -0.599011
     15 H4         -0.1810    2.7130    4.1940 hn        1 MOL      0.306044
     16 H5         -0.2940    2.1830    1.4620 h1        1 MOL      0.059347
     17 H6         -2.5220    2.1700    3.4540 hc        1 MOL      0.085257
     18 H7         -1.5520    0.7540    2.9430 hc        1 MOL      0.085257
     19 N2         -0.4700    4.7340    0.9260 n         1 MOL     -0.747326
     20 C7         -0.8400    6.0420    0.3160 c3        1 MOL      0.217817
     21 C8         -2.0590    5.9190   -0.6460 c         1 MOL      0.344334
     22 O5         -2.9380    6.8320   -0.6620 o         1 MOL     -0.532246
     23 C9          0.4290    6.6590   -0.3920 c3        1 MOL     -0.301822
     24 C10         1.3480    7.2730    0.6120 c3        1 MOL      0.431257
     25 C11         2.5980    7.9290    0.0870 c3        1 MOL     -0.124355
     26 C12         3.5420    8.4830    1.1180 c3        1 MOL     -0.084100
     27 N3          4.0740    7.3420    1.9480 n4        1 MOL     -0.379455
     28 H8          0.4910    4.4510    0.8060 hn        1 MOL      0.452202
     29 H9         -1.1740    6.7450    1.0740 h1        1 MOL      0.061117
     30 H10         0.0670    7.3350   -1.1650 hc        1 MOL      0.087337
     31 H11         1.0150    5.8350   -0.7930 hc        1 MOL      0.087337
     32 H12         1.7530    6.4360    1.1920 hc        1 MOL     -0.104676
     33 H13         0.7920    7.9320    1.2710 hc        1 MOL     -0.104676
     34 H14         2.2110    8.6940   -0.5940 hc        1 MOL      0.055841
     35 H15         3.0890    7.1400   -0.4880 hc        1 MOL      0.055841
     36 H16         2.9290    9.0740    1.8080 hx        1 MOL      0.130528
     37 H17         4.4030    9.0110    0.7250 hx        1 MOL      0.130528
     38 H18         4.4040    6.5800    1.3770 hn        1 MOL      0.339295
     39 H19         4.8650    7.7790    2.3900 hn        1 MOL      0.339295
     40 H20         3.4260    6.8550    2.5470 hn        1 MOL      0.339295
     41 N4         -2.1340    4.8570   -1.4280 n         1 MOL     -0.152289
     42 C13        -3.1720    4.6790   -2.4730 c3        1 MOL     -0.173213
     43 C14        -4.5140    4.2480   -1.9090 c         1 MOL      0.562136
     44 O6         -5.4840    4.4330   -2.6020 o         1 MOL     -0.571977
     45 C15        -2.5890    3.6660   -3.5550 c3        1 MOL     -0.173202
     46 C16        -2.1710    2.3900   -2.9450 c         1 MOL      0.682861
     47 O7         -2.8790    1.3710   -3.0590 o         1 MOL     -0.690102
     48 O8         -1.0570    2.3370   -2.2770 o         1 MOL     -0.690102
     49 H21        -1.5270    4.0760   -1.2260 hn        1 MOL      0.152932
     50 H22        -3.3820    5.6200   -2.9790 h1        1 MOL      0.152791
     51 H23        -1.7790    4.0750   -4.1660 hc        1 MOL      0.070339
     52 H24        -3.3690    3.5370   -4.3160 hc        1 MOL      0.070339
     53 N5         -4.6640    3.7680   -0.6900 n         1 MOL     -0.209935
     54 C17        -5.9830    3.4260   -0.2360 c3        1 MOL     -0.151490
     55 C18        -6.4660    2.0460   -0.4780 c         1 MOL      0.453730
     56 O9         -7.6030    1.7370   -0.0440 o         1 MOL     -0.559076
     57 H25        -3.8430    3.5770   -0.1320 hn        1 MOL      0.226879
     58 H26        -6.7360    4.1660   -0.5220 h1        1 MOL      0.120415
     59 H27        -6.0780    3.5640    0.8450 h1        1 MOL      0.120415
     60 N6         -5.7040    1.1870   -1.2010 n         1 MOL     -0.161630
     61 C19        -6.1920   -0.1710   -1.5980 c3        1 MOL     -0.100444
     62 C20        -6.3250   -1.2080   -0.4070 c         1 MOL      0.367123
     63 O10        -6.8250   -2.2840   -0.6350 o         1 MOL     -0.451172
     64 C21        -5.3910   -0.8250   -2.7660 c3        1 MOL     -0.078517
     65 C22        -4.3100   -1.7730   -2.2820 c         1 MOL      0.269410
     66 N7         -4.2530   -2.9930   -2.7550 n         1 MOL     -0.557464
     67 O11        -3.5410   -1.4070   -1.3760 o         1 MOL     -0.388917
     68 H28        -4.8720    1.6080   -1.5950 hn        1 MOL      0.165732
     69 H29        -7.1940   -0.0680   -2.0250 h1        1 MOL      0.110944
     70 H30        -4.9820   -0.0230   -3.3790 hc        1 MOL      0.080328
     71 H31        -6.0540   -1.3800   -3.4360 hc        1 MOL      0.080328
     72 H32        -4.7530   -3.2610   -3.5910 hn        1 MOL      0.325413
     73 H33        -3.5660   -3.6250   -2.3760 hn        1 MOL      0.325413
     74 N8         -5.8840   -0.8020    0.8210 n         1 MOL     -0.152201
     75 C23        -5.9720   -1.6080    2.0660 c3        1 MOL     -0.183368
     76 C24        -4.7820   -2.5870    2.2730 c         1 MOL      0.479942
     77 O12        -4.8640   -3.4160    3.1210 o         1 MOL     -0.536656
     78 H34        -5.4910    0.1200    0.9370 hn        1 MOL      0.239128
     79 H35        -6.9770   -2.0140    2.2130 h1        1 MOL      0.109741
     80 H36        -5.8610   -1.0020    2.9750 h1        1 MOL      0.109741
     81 N9         -3.7430   -2.4330    1.4530 n         1 MOL     -0.047749
     82 C25        -2.4850   -3.1190    1.5680 c3        1 MOL      0.157470
     83 C26        -1.2530   -2.2670    1.5760 c         1 MOL      0.232517
     84 O13        -1.1480   -1.2550    0.9320 o         1 MOL     -0.461305
     85 C27        -2.3790   -4.1650    0.4950 c3        1 MOL      0.332489
     86 C28        -3.4150   -5.3060    0.4950 ca        1 MOL     -0.182638
     87 C29        -4.6430   -5.1430   -0.1610 ca        1 MOL     -0.133071
     88 C30        -3.1660   -6.5130    1.1560 ca        1 MOL     -0.133071
     89 C31        -5.5270   -6.2040   -0.2810 ca        1 MOL     -0.089940
     90 C32        -4.0550   -7.5930    1.0250 ca        1 MOL     -0.089940
     91 C33        -5.2150   -7.4470    0.2920 ca        1 MOL      0.142620
     92 O14        -6.1670   -8.4730    0.2350 oh        1 MOL     -0.435442
     93 H37        -3.8560   -1.7160    0.7490 hn        1 MOL      0.045159
     94 H38        -2.4620   -3.6230    2.5450 h1        1 MOL     -0.028612
     95 H39        -1.3780   -4.5770    0.4140 hc        1 MOL     -0.078037
     96 H40        -2.5390   -3.7340   -0.4910 hc        1 MOL     -0.078037
     97 H41        -4.9230   -4.1850   -0.5900 ha        1 MOL      0.089637
     98 H42        -2.1820   -6.6270    1.5750 ha        1 MOL      0.089637
     99 H43        -6.3680   -6.0670   -0.9410 ha        1 MOL      0.104379
    100 H44        -3.7330   -8.5240    1.4480 ha        1 MOL      0.104379
    101 H45        -5.7640   -9.2760    0.5800 ho        1 MOL      0.334268
    102 N10        -0.2400   -2.7850    2.2710 n         1 MOL     -0.269285
    103 C34         1.1800   -2.3380    2.1660 c3        1 MOL     -0.232901
    104 C35         1.9870   -3.4070    1.3270 c         1 MOL      0.604926
    105 O15         1.9080   -4.5620    1.7050 o         1 MOL     -0.540483
    106 C36         1.7680   -2.1010    3.5870 c3        1 MOL      0.281981
    107 C37         0.9310   -1.1270    4.3750 c3        1 MOL      0.052808
    108 C38         3.1860   -1.4620    3.4690 c3        1 MOL     -0.266164
    109 C39         1.1540   -1.1210    5.8320 c3        1 MOL     -0.388350
    110 H46        -0.3970   -3.5600    2.8910 hn        1 MOL      0.259177
    111 H47         1.2760   -1.3450    1.7250 h1        1 MOL      0.188915
    112 H48         1.8280   -3.0200    4.1790 hc        1 MOL     -0.021196
    113 H49        -0.1390   -1.3210    4.2410 hc        1 MOL      0.036881
    114 H50         1.1610   -0.1550    3.9430 hc        1 MOL      0.036881
    115 H51         3.9220   -2.1230    3.0020 hc        1 MOL      0.048732
    116 H52         3.1440   -0.5590    2.8490 hc        1 MOL      0.048732
    117 H53         3.5630   -1.2120    4.4580 hc        1 MOL      0.048732
    118 H54         2.1720   -0.7690    5.9990 hc        1 MOL      0.094828
    119 H55         0.3130   -0.5580    6.2310 hc        1 MOL      0.094828
    120 H56         1.1210   -2.1310    6.2560 hc        1 MOL      0.094828
    121 N11         2.8000   -2.9450    0.3080 n         1 MOL     -0.416310
    122 C40         3.6370   -3.7240   -0.6240 c3        1 MOL      0.237366
    123 C41         5.1330   -3.4430   -0.2770 c         1 MOL      0.228241
    124 O16         5.4540   -2.4300    0.3740 o         1 MOL     -0.300000
    125 C42         3.2750   -3.5030   -2.1240 c3        1 MOL     -0.266844
    126 O17         3.9060   -2.3110   -2.4950 oh        1 MOL     -0.416705
    127 H57         2.8310   -1.9510    0.1650 hn        1 MOL      0.201111
    128 H58         3.4270   -4.7730   -0.4600 h1        1 MOL      0.032026
    129 H59         2.2140   -3.3510   -2.3060 h1        1 MOL      0.130291
    130 H60         3.7150   -4.3160   -2.7040 h1        1 MOL      0.130291
    131 H61         3.4030   -1.9150   -3.2070 ho        1 MOL      0.394523
    132 N12         6.1180   -4.1920   -0.8070 n         1 MOL     -0.243745
    133 C43         7.5050   -3.9490   -0.4430 c3        1 MOL      0.076752
    134 C44         8.0620   -2.6880   -1.1400 c         1 MOL      0.510713
    135 O18         9.0190   -2.0480   -0.7180 o         1 MOL     -0.558093
    136 C45         8.2730   -5.2950   -0.7130 c3        1 MOL     -0.298543
    137 H62         5.8270   -5.0350   -1.2630 hn        1 MOL      0.243596
    138 H63         7.5770   -3.7660    0.6320 h1        1 MOL      0.089835
    139 H64         9.3260   -5.1640   -0.4930 hc        1 MOL      0.094067
    140 H65         7.7920   -6.0880   -0.1430 hc        1 MOL      0.094067
    141 H66         8.2650   -5.4310   -1.7970 hc        1 MOL      0.094067
    142 N13         7.4620   -2.2660   -2.2300 n         1 MOL     -0.318040
    143 C46         7.7330   -0.9670   -2.8870 c3        1 MOL      0.161373
    144 C47         7.0850    0.1950   -2.0410 c         1 MOL      0.304725
    145 O19         7.6850    1.1640   -1.6740 o         1 MOL     -0.483317
    146 C48         7.2940   -1.1090   -4.3660 c3        1 MOL     -0.368907
    147 H67         6.7580   -2.9160   -2.5470 hn        1 MOL      0.171623
    148 H68         8.8040   -0.8240   -3.0270 h1        1 MOL      0.095883
    149 H69         8.0390   -1.7900   -4.7550 hc        1 MOL      0.102597
    150 H70         6.2280   -1.2980   -4.4930 hc        1 MOL      0.102597
    151 H71         7.4730   -0.1390   -4.8320 hc        1 MOL      0.102597
    152 N14         5.8050    0.0740   -1.5760 n         1 MOL     -0.053026
    153 C49         5.2750    1.0670   -0.6430 c3        1 MOL     -0.209061
    154 C50         5.9210    1.1300    0.7530 c         1 MOL      0.442558
    155 O20         6.0190    2.2380    1.3010 o         1 MOL     -0.579682
    156 C51         3.8480    0.8840   -0.4150 c3        1 MOL      0.121731
    157 C52         3.0570    0.8650   -1.7310 c3        1 MOL     -0.031822
    158 C53         1.5980    0.4030   -1.5450 c         1 MOL      0.822769
    159 O21         0.9670    0.5240   -0.4980 o         1 MOL     -0.792854
    160 O22         0.9910   -0.0880   -2.5690 o         1 MOL     -0.792854
    161 H72         5.2910   -0.7730   -1.7790 hn        1 MOL      0.102265
    162 H73         5.3710    2.0600   -1.0840 h1        1 MOL      0.129638
    163 H74         3.5050    1.7390    0.1670 hc        1 MOL     -0.002682
    164 H75         3.6390   -0.0900    0.0460 hc        1 MOL     -0.002682
    165 H76         3.4880    0.2660   -2.5320 hc        1 MOL     -0.032718
    166 H77         3.0000    1.8510   -2.1760 hc        1 MOL     -0.032718
    167 N15         6.5600    0.0770    1.2330 n         1 MOL      0.033473
    168 C54         7.2900    0.1150    2.5200 c3        1 MOL     -0.247748
    169 H78         7.0300    1.0260    3.0570 h1        1 MOL      0.096267
    170 H79         7.0140   -0.7520    3.1200 h1        1 MOL      0.096267
    171 H80         8.3640    0.0990    2.3290 h1        1 MOL      0.096267
    172 H81         6.2930   -0.8080    0.8200 hn        1 MOL      0.013328
    173 Ca1        -1.4130   -0.0950   -1.3670 Ca        1 MOL      1.633999
    174 O23        -1.7940   -0.9130   -4.0720 oh        1 MOL     -0.750900
    175 H82        -2.5120   -0.3740   -4.4190 ho        1 MOL      0.371141
    176 H83        -1.6880   -1.6160   -4.7180 ho        1 MOL      0.371141
    177 O24        -0.6130   -2.4670   -1.7830 oh        1 MOL     -0.750900
    178 H84        -1.1160   -3.2620   -1.9320 ho        1 MOL      0.371141
    179 H85         0.1560   -2.5560   -2.3390 ho        1 MOL      0.371141
@<TRIPOS>BOND
     1    1    2 1   
     2    1    4 1   
     3    1    5 1   
     4    1    6 1   
     5    2    3 2   
     6    2    7 1   
     7    7    8 1   
     8    7   15 1   
     9    8    9 1   
    10    8   11 1   
    11    8   16 1   
    12    9   10 2   
    13    9   19 1   
    14   11   12 1   
    15   11   17 1   
    16   11   18 1   
    17   12   13 1   
    18   12   14 1   
    19   19   20 1   
    20   19   28 1   
    21   20   21 1   
    22   20   23 1   
    23   20   29 1   
    24   21   22 2   
    25   21   41 1   
    26   23   24 1   
    27   23   30 1   
    28   23   31 1   
    29   24   25 1   
    30   24   32 1   
    31   24   33 1   
    32   25   26 1   
    33   25   34 1   
    34   25   35 1   
    35   26   27 1   
    36   26   36 1   
    37   26   37 1   
    38   27   38 1   
    39   27   39 1   
    40   27   40 1   
    41   41   42 1   
    42   41   49 1   
    43   42   43 1   
    44   42   45 1   
    45   42   50 1   
    46   43   44 2   
    47   43   53 1   
    48   45   46 1   
    49   45   51 1   
    50   45   52 1   
    51   46   47 1   
    52   46   48 1   
    53   53   54 1   
    54   53   57 1   
    55   54   55 1   
    56   54   58 1   
    57   54   59 1   
    58   55   56 2   
    59   55   60 1   
    60   60   61 1   
    61   60   68 1   
    62   61   62 1   
    63   61   64 1   
    64   61   69 1   
    65   62   63 2   
    66   62   74 1   
    67   64   65 1   
    68   64   70 1   
    69   64   71 1   
    70   65   66 1   
    71   65   67 2   
    72   66   72 1   
    73   66   73 1   
    74   74   75 1   
    75   74   78 1   
    76   75   76 1   
    77   75   79 1   
    78   75   80 1   
    79   76   77 2   
    80   76   81 1   
    81   81   82 1   
    82   81   93 1   
    83   82   83 1   
    84   82   85 1   
    85   82   94 1   
    86   83   84 2   
    87   83  102 1   
    88   85   86 1   
    89   85   95 1   
    90   85   96 1   
    91   86   87 ar  
    92   86   88 ar  
    93   87   89 ar  
    94   87   97 1   
    95   88   90 ar  
    96   88   98 1   
    97   89   91 ar  
    98   89   99 1   
    99   90   91 ar  
   100   90  100 1   
   101   91   92 1   
   102   92  101 1   
   103  102  103 1   
   104  102  110 1   
   105  103  104 1   
   106  103  106 1   
   107  103  111 1   
   108  104  105 2   
   109  104  121 1   
   110  106  107 1   
   111  106  108 1   
   112  106  112 1   
   113  107  109 1   
   114  107  113 1   
   115  107  114 1   
   116  108  115 1   
   117  108  116 1   
   118  108  117 1   
   119  109  118 1   
   120  109  119 1   
   121  109  120 1   
   122  121  122 1   
   123  121  127 1   
   124  122  123 1   
   125  122  125 1   
   126  122  128 1   
   127  123  124 2   
   128  123  132 1   
   129  125  126 1   
   130  125  129 1   
   131  125  130 1   
   132  126  131 1   
   133  132  133 1   
   134  132  137 1   
   135  133  134 1   
   136  133  136 1   
   137  133  138 1   
   138  134  135 2   
   139  134  142 1   
   140  136  139 1   
   141  136  140 1   
   142  136  141 1   
   143  142  143 1   
   144  142  147 1   
   145  143  144 1   
   146  143  146 1   
   147  143  148 1   
   148  144  145 2   
   149  144  152 1   
   150  146  149 1   
   151  146  150 1   
   152  146  151 1   
   153  152  153 1   
   154  152  161 1   
   155  153  154 1   
   156  153  156 1   
   157  153  162 1   
   158  154  155 2   
   159  154  167 1   
   160  156  157 1   
   161  156  163 1   
   162  156  164 1   
   163  157  158 1   
   164  157  165 1   
   165  157  166 1   
   166  158  159 1   
   167  158  160 1   
   168  167  168 1   
   169  167  172 1   
   170  168  169 1   
   171  168  170 1   
   172  168  171 1   
   173  174  175 1   
   174  174  176 1   
   175  177  178 1   
   176  177  179 1   
@<TRIPOS>SUBSTRUCTURE
     1 MOL         1 TEMP              0 ****  ****    0 ROOT
