@<TRIPOS>MOLECULE
MOL
  186   183     1     0     0
SMALL
resp


@<TRIPOS>ATOM
      1 C1          1.0620   -1.8250    6.3420 c3        1 MOL     -0.216539
      2 C2          1.3240   -1.8710    4.7580 c         1 MOL      0.690023
      3 O1          0.4520   -2.3270    4.0430 o         1 MOL     -0.534137
      4 H1          1.3590   -0.8510    6.7310 hc        1 MOL      0.041039
      5 H2          0.0020   -1.9870    6.5410 hc        1 MOL      0.041039
      6 H3          1.6460   -2.6040    6.8310 hc        1 MOL      0.041039
      7 N1          2.5650   -1.5320    4.3740 n         1 MOL     -0.639835
      8 C3          3.0480   -1.5300    2.9340 c3        1 MOL      0.296913
      9 C4          3.5170   -2.9410    2.4930 c         1 MOL      0.412262
     10 O2          4.4260   -3.4790    3.0780 o         1 MOL     -0.593655
     11 C5          4.2350   -0.5830    2.7790 c3        1 MOL     -0.230000
     12 C6          4.8250   -0.6100    1.3170 c         1 MOL      0.629696
     13 O3          5.9030   -0.0290    1.1150 o         1 MOL     -0.572947
     14 O4          3.9970   -0.8840    0.4370 o         1 MOL     -0.572947
     15 H4          3.1550   -1.1140    5.0850 hn        1 MOL      0.326183
     16 H5          2.2460   -1.2470    2.2490 h1        1 MOL     -0.037343
     17 H6          5.0100   -0.7450    3.5340 hc        1 MOL      0.030359
     18 H7          3.8420    0.4400    2.8700 hc        1 MOL      0.030359
     19 N2          2.9800   -3.5070    1.5070 n         1 MOL     -0.028704
     20 C7          3.0530   -4.9440    1.0260 c3        1 MOL     -0.406383
     21 C8          3.8800   -5.2720   -0.2510 c         1 MOL      0.769014
     22 O5          4.2770   -6.4190   -0.5560 o         1 MOL     -0.612591
     23 C9          1.5370   -5.3940    0.9020 c3        1 MOL      0.365320
     24 C10         0.7190   -5.4480    2.1890 c3        1 MOL      0.001811
     25 C11         1.3470   -6.6690   -0.0040 c3        1 MOL     -0.156599
     26 C12        -0.6970   -5.8280    2.1400 c3        1 MOL     -0.070763
     27 H8          2.2830   -2.9380    1.0510 hn        1 MOL      0.091792
     28 H9          3.6650   -5.5140    1.7210 h1        1 MOL      0.113840
     29 H10         1.0870   -4.5630    0.3640 hc        1 MOL     -0.072645
     30 H11         0.6810   -4.4240    2.5420 hc        1 MOL     -0.010875
     31 H12         1.2730   -6.0760    2.8870 hc        1 MOL     -0.010875
     32 H13         1.6850   -7.5160    0.5910 hc        1 MOL      0.013591
     33 H14         0.2770   -6.7920   -0.1730 hc        1 MOL      0.013591
     34 H15         1.8390   -6.5940   -0.9630 hc        1 MOL      0.013591
     35 H16        -1.1860   -5.3520    1.2950 hc        1 MOL      0.007414
     36 H17        -0.6890   -6.9140    2.0190 hc        1 MOL      0.007414
     37 H18        -1.1830   -5.5820    3.0860 hc        1 MOL      0.007414
     38 N3          4.2020   -4.1600   -0.9440 n         1 MOL     -0.614522
     39 C13         4.9480   -4.2770   -2.1520 c3        1 MOL      0.108203
     40 C14         6.2090   -3.3940   -2.0740 c         1 MOL      0.399301
     41 O6          7.0680   -3.4850   -2.9960 o         1 MOL     -0.559519
     42 C15         4.0900   -3.9510   -3.4330 c3        1 MOL     -0.304948
     43 C16         3.2890   -2.7230   -3.3140 c         1 MOL      0.904605
     44 O7          2.4200   -2.5220   -4.1460 o         1 MOL     -0.753904
     45 O8          3.3860   -1.9040   -2.3660 o         1 MOL     -0.753904
     46 H19         3.6480   -3.3430   -0.7340 hn        1 MOL      0.380766
     47 H20         5.2450   -5.3070   -2.3270 h1        1 MOL      0.089499
     48 H21         3.4260   -4.8110   -3.4560 hc        1 MOL      0.081487
     49 H22         4.7160   -3.9590   -4.3260 hc        1 MOL      0.081487
     50 N4          6.4400   -2.5500   -1.0930 n         1 MOL     -0.206570
     51 C17         7.7370   -1.8650   -0.9480 c3        1 MOL     -0.128405
     52 C18         7.9690   -0.5300   -1.6800 c         1 MOL      0.569014
     53 O9          9.0140   -0.2750   -2.2420 o         1 MOL     -0.602787
     54 H23         5.6990   -2.2160   -0.4980 hn        1 MOL      0.170955
     55 H24         8.5630   -2.4640   -1.3440 h1        1 MOL      0.071238
     56 H25         7.9430   -1.7350    0.1170 h1        1 MOL      0.071238
     57 N5          7.0020    0.3720   -1.5210 n         1 MOL     -0.178799
     58 C19         7.0930    1.7860   -1.9810 c3        1 MOL      0.039411
     59 C20         7.1190    2.8270   -0.8220 c         1 MOL      0.292938
     60 O10         7.3480    4.0110   -1.0880 o         1 MOL     -0.530787
     61 C21         5.9270    2.1680   -2.9050 c3        1 MOL     -0.146481
     62 C22         4.5830    1.7360   -2.3260 c         1 MOL      0.692300
     63 O11         4.2460    1.9410   -1.0980 o         1 MOL     -0.714101
     64 O12         3.8440    1.1030   -3.1150 o         1 MOL     -0.714101
     65 H26         6.1930    0.1280   -0.9640 hn        1 MOL      0.066663
     66 H27         8.0440    1.9000   -2.4910 h1        1 MOL      0.084293
     67 H28         6.0760    1.7010   -3.8780 hc        1 MOL      0.052743
     68 H29         5.9100    3.2430   -3.0420 hc        1 MOL      0.052743
     69 N6          6.8830    2.4430    0.4290 n         1 MOL     -0.026623
     70 C23         6.7840    3.2640    1.5830 c3        1 MOL     -0.076449
     71 C24         5.4940    3.9040    1.9360 c         1 MOL      0.562084
     72 O13         5.5070    4.8390    2.7310 o         1 MOL     -0.604171
     73 H30         6.8850    1.4470    0.5960 hn        1 MOL      0.108341
     74 H31         7.5930    3.9900    1.4040 h1        1 MOL      0.034839
     75 H32         7.0190    2.6480    2.4530 h1        1 MOL      0.034839
     76 N7          4.4500    3.5670    1.1680 n         1 MOL     -0.209319
     77 C25         3.0490    4.0860    1.4310 c3        1 MOL     -0.152547
     78 C26         2.0030    2.9380    1.4570 c         1 MOL      0.572901
     79 O14         2.0990    1.8510    0.8560 o         1 MOL     -0.578523
     80 C27         2.8020    5.1130    0.3120 c3        1 MOL      0.024886
     81 C28         3.6470    6.3800    0.1840 c3        1 MOL     -0.372790
     82 C29         3.2890    7.3430   -0.9370 c         1 MOL      0.682251
     83 N8          2.5470    8.3810   -0.6720 n         1 MOL     -0.764381
     84 O15         3.7010    7.1310   -2.0330 o         1 MOL     -0.550197
     85 H33         4.5370    2.8470    0.4670 hn        1 MOL      0.218033
     86 H34         3.0490    4.5830    2.4030 h1        1 MOL      0.072075
     87 H35         1.7990    5.5200    0.2370 hc        1 MOL      0.059098
     88 H36         2.9340    4.5660   -0.6250 hc        1 MOL      0.059098
     89 H37         4.6980    6.1060    0.1090 hc        1 MOL      0.106796
     90 H38         3.5050    6.7910    1.1840 hc        1 MOL      0.106796
     91 H39         2.3800    8.4920    0.3170 hn        1 MOL      0.349710
     92 H40         2.3470    9.0020   -1.4420 hn        1 MOL      0.349710
     93 N9          0.8030    3.3000    1.9590 n         1 MOL     -0.431182
     94 C30        -0.4120    2.4390    1.8710 c3        1 MOL      0.113687
     95 C31        -1.4920    3.0650    1.0020 c         1 MOL      0.379779
     96 O16        -2.0460    4.1230    1.3060 o         1 MOL     -0.524738
     97 C32        -0.8370    2.2920    3.3920 c3        1 MOL      0.074480
     98 C33        -2.1830    1.6770    3.8170 c3        1 MOL     -0.224011
     99 C34         0.2320    1.5290    4.1260 c3        1 MOL     -0.224011
    100 H41         0.8620    4.2160    2.3670 hn        1 MOL      0.261272
    101 H42        -0.1460    1.4540    1.5070 h1        1 MOL      0.107512
    102 H43        -0.8640    3.2990    3.7900 hc        1 MOL      0.014560
    103 H44        -2.8880    2.4630    3.5680 hc        1 MOL      0.048943
    104 H45        -2.3080    0.6970    3.3610 hc        1 MOL      0.048943
    105 H46        -2.3980    1.4560    4.8590 hc        1 MOL      0.048943
    106 H47        -0.0050    1.4150    5.1890 hc        1 MOL      0.048943
    107 H48         0.2700    0.5020    3.7640 hc        1 MOL      0.048943
    108 H49         1.2400    1.9540    4.0930 hc        1 MOL      0.048943
    109 N10        -1.6130    2.5210   -0.2070 n         1 MOL     -0.309933
    110 C35        -2.8050    2.6050   -1.0160 c3        1 MOL      0.074618
    111 C36        -4.0580    1.9660   -0.3080 c         1 MOL      0.352958
    112 O17        -3.9420    1.1530    0.6320 o         1 MOL     -0.310314
    113 C37        -2.5840    2.1650   -2.4660 c3        1 MOL     -0.314170
    114 C38        -3.2330    0.8850   -2.8140 c         1 MOL      0.544228
    115 N11        -2.5920   -0.2150   -2.3900 n         1 MOL     -0.621969
    116 O18        -4.2700    0.8350   -3.5650 o         1 MOL     -0.555045
    117 H50        -0.9000    1.8480   -0.4440 hn        1 MOL      0.284732
    118 H51        -3.0330    3.6760   -0.9960 h1        1 MOL      0.066952
    119 H52        -1.5250    2.0520   -2.7060 hc        1 MOL      0.125381
    120 H53        -2.8240    2.9690   -3.1610 hc        1 MOL      0.125381
    121 H54        -1.7620   -0.1240   -1.8210 hn        1 MOL      0.344205
    122 H55        -2.8400   -1.1460   -2.7020 hn        1 MOL      0.344205
    123 N12        -5.2910    2.2180   -0.7450 n         1 MOL     -0.355390
    124 C39        -6.5640    1.7960   -0.1650 c3        1 MOL      0.023759
    125 C40        -6.7510    0.2680   -0.2070 c         1 MOL      1.110771
    126 O19        -7.2790   -0.3270    0.7360 o         1 MOL     -0.635527
    127 C41        -7.6620    2.5700   -0.8680 c3        1 MOL     -0.166077
    128 C42        -9.1150    2.2030   -0.4870 ca        1 MOL     -0.077962
    129 C43        -9.4990    2.1600    0.8620 ca        1 MOL     -0.105257
    130 C44       -10.0870    1.9080   -1.4520 ca        1 MOL     -0.105257
    131 C45       -10.8110    1.8300    1.2710 ca        1 MOL     -0.306699
    132 C46       -11.3840    1.5010   -1.0630 ca        1 MOL     -0.306699
    133 C47       -11.7570    1.4020    0.2700 ca        1 MOL      0.435951
    134 O20       -13.0620    1.1570    0.5900 oh        1 MOL     -0.546080
    135 H56        -5.4690    2.8320   -1.5250 hn        1 MOL      0.228433
    136 H57        -6.5030    1.8880    0.9140 h1        1 MOL      0.026959
    137 H58        -7.4610    2.4360   -1.9360 hc        1 MOL      0.084254
    138 H59        -7.4680    3.6310   -0.6950 hc        1 MOL      0.084254
    139 H60        -8.8110    2.4340    1.6500 ha        1 MOL      0.134695
    140 H61        -9.9320    1.9640   -2.5230 ha        1 MOL      0.134695
    141 H62       -11.0930    1.9320    2.3050 ha        1 MOL      0.145017
    142 H63       -12.1330    1.3650   -1.8350 ha        1 MOL      0.145017
    143 H64       -13.5100    0.9820   -0.2400 ho        1 MOL      0.366438
    144 N13        -6.2190   -0.3670   -1.2470 n         1 MOL     -0.819911
    145 C48        -6.1320   -1.7900   -1.3040 c3        1 MOL     -0.005389
    146 C49        -5.2660   -2.4900   -0.2560 c         1 MOL      0.348644
    147 O21        -5.4910   -3.6380    0.0200 o         1 MOL     -0.527470
    148 C50        -5.6810   -2.1870   -2.6820 c3        1 MOL      0.123027
    149 C51        -6.5660   -1.8110   -3.8710 c3        1 MOL     -0.107690
    150 C52        -8.0060   -2.2000   -3.6950 c         1 MOL      0.613314
    151 O22        -8.7400   -1.2660   -3.2730 o         1 MOL     -0.705256
    152 O23        -8.4730   -3.3220   -3.9710 o         1 MOL     -0.705256
    153 H65        -5.8170    0.2120   -1.9640 hn        1 MOL      0.347642
    154 H66        -7.1370   -2.2120   -1.1890 h1        1 MOL      0.167666
    155 H67        -5.6240   -3.2720   -2.6930 hc        1 MOL     -0.030251
    156 H68        -4.6750   -1.8160   -2.8660 hc        1 MOL     -0.030251
    157 H69        -6.1770   -2.3430   -4.7410 hc        1 MOL      0.004066
    158 H70        -6.4620   -0.7570   -4.1290 hc        1 MOL      0.004066
    159 N14        -4.3440   -1.8020    0.3940 n         1 MOL      0.023604
    160 C53        -3.5250   -2.2810    1.4730 c3        1 MOL     -0.014192
    161 C54        -4.2670   -1.9020    2.7690 c         1 MOL      0.466039
    162 O24        -4.1480   -2.6640    3.7350 o         1 MOL     -0.579543
    163 C55        -2.1710   -1.5330    1.4790 c3        1 MOL      0.079290
    164 C56        -1.0840   -2.2620    0.5840 c3        1 MOL     -0.108846
    165 C57         0.0090   -1.3960   -0.0730 c         1 MOL      0.646435
    166 O25         1.1730   -1.8690   -0.1290 o         1 MOL     -0.677646
    167 O26        -0.2330   -0.2190   -0.4310 o         1 MOL     -0.677646
    168 H71        -4.2600   -0.8690    0.0290 hn        1 MOL     -0.116782
    169 H72        -3.3060   -3.3540    1.4550 h1        1 MOL      0.062711
    170 H73        -1.7860   -1.4540    2.4900 hc        1 MOL      0.040048
    171 H74        -2.2620   -0.5020    1.1410 hc        1 MOL      0.040048
    172 H75        -1.5600   -2.7070   -0.2970 hc        1 MOL      0.039202
    173 H76        -0.6550   -2.9950    1.2620 hc        1 MOL      0.039202
    174 N15        -4.9180   -0.7190    2.8450 n         1 MOL     -0.094877
    175 C58        -5.8280   -0.2500    3.9390 c3        1 MOL     -0.179114
    176 H77        -5.2630    0.3540    4.6480 h1        1 MOL      0.074517
    177 H78        -6.6320    0.3490    3.5120 h1        1 MOL      0.074517
    178 H79        -6.2510   -1.1130    4.4560 h1        1 MOL      0.074517
    179 H80        -4.9180   -0.1430    2.0190 hn        1 MOL      0.048386
    180 Ca1         2.3130    0.2200   -1.1530 Ca        1 MOL      1.714479
    181 O27         1.3270    2.6860   -1.8470 oh        1 MOL     -0.886111
    182 O28         0.9340   -0.3670   -3.2520 oh        1 MOL     -0.886111
    183 H81         1.3520    2.3560   -2.7450 ho        1 MOL      0.407502
    184 H82         0.3600   -0.1030   -3.9620 ho        1 MOL      0.407502
    185 H83         1.7790    3.5240   -1.8810 ho        1 MOL      0.407502
    186 H84         1.4180   -1.1120   -3.5930 ho        1 MOL      0.407502
@<TRIPOS>BOND
     1    1    2 1   
     2    1    4 1   
     3    1    5 1   
     4    1    6 1   
     5    2    3 2   
     6    2    7 1   
     7    7    8 1   
     8    7   15 1   
     9    8    9 1   
    10    8   11 1   
    11    8   16 1   
    12    9   10 2   
    13    9   19 1   
    14   11   12 1   
    15   11   17 1   
    16   11   18 1   
    17   12   13 1   
    18   12   14 1   
    19   19   20 1   
    20   19   27 1   
    21   20   21 1   
    22   20   23 1   
    23   20   28 1   
    24   21   22 2   
    25   21   38 1   
    26   23   24 1   
    27   23   25 1   
    28   23   29 1   
    29   24   26 1   
    30   24   30 1   
    31   24   31 1   
    32   25   32 1   
    33   25   33 1   
    34   25   34 1   
    35   26   35 1   
    36   26   36 1   
    37   26   37 1   
    38   38   39 1   
    39   38   46 1   
    40   39   40 1   
    41   39   42 1   
    42   39   47 1   
    43   40   41 2   
    44   40   50 1   
    45   42   43 1   
    46   42   48 1   
    47   42   49 1   
    48   43   44 1   
    49   43   45 1   
    50   50   51 1   
    51   50   54 1   
    52   51   52 1   
    53   51   55 1   
    54   51   56 1   
    55   52   53 2   
    56   52   57 1   
    57   57   58 1   
    58   57   65 1   
    59   58   59 1   
    60   58   61 1   
    61   58   66 1   
    62   59   60 2   
    63   59   69 1   
    64   61   62 1   
    65   61   67 1   
    66   61   68 1   
    67   62   63 1   
    68   62   64 1   
    69   69   70 1   
    70   69   73 1   
    71   70   71 1   
    72   70   74 1   
    73   70   75 1   
    74   71   72 2   
    75   71   76 1   
    76   76   77 1   
    77   76   85 1   
    78   77   78 1   
    79   77   80 1   
    80   77   86 1   
    81   78   79 2   
    82   78   93 1   
    83   80   81 1   
    84   80   87 1   
    85   80   88 1   
    86   81   82 1   
    87   81   89 1   
    88   81   90 1   
    89   82   83 1   
    90   82   84 2   
    91   83   91 1   
    92   83   92 1   
    93   93   94 1   
    94   93  100 1   
    95   94   95 1   
    96   94   97 1   
    97   94  101 1   
    98   95   96 2   
    99   95  109 1   
   100   97   98 1   
   101   97   99 1   
   102   97  102 1   
   103   98  103 1   
   104   98  104 1   
   105   98  105 1   
   106   99  106 1   
   107   99  107 1   
   108   99  108 1   
   109  109  110 1   
   110  109  117 1   
   111  110  111 1   
   112  110  113 1   
   113  110  118 1   
   114  111  112 2   
   115  111  123 1   
   116  113  114 1   
   117  113  119 1   
   118  113  120 1   
   119  114  115 1   
   120  114  116 2   
   121  115  121 1   
   122  115  122 1   
   123  123  124 1   
   124  123  135 1   
   125  124  125 1   
   126  124  127 1   
   127  124  136 1   
   128  125  126 2   
   129  125  144 1   
   130  127  128 1   
   131  127  137 1   
   132  127  138 1   
   133  128  129 ar  
   134  128  130 ar  
   135  129  131 ar  
   136  129  139 1   
   137  130  132 ar  
   138  130  140 1   
   139  131  133 ar  
   140  131  141 1   
   141  132  133 ar  
   142  132  142 1   
   143  133  134 1   
   144  134  143 1   
   145  144  145 1   
   146  144  153 1   
   147  145  146 1   
   148  145  148 1   
   149  145  154 1   
   150  146  147 2   
   151  146  159 1   
   152  148  149 1   
   153  148  155 1   
   154  148  156 1   
   155  149  150 1   
   156  149  157 1   
   157  149  158 1   
   158  150  151 1   
   159  150  152 1   
   160  159  160 1   
   161  159  168 1   
   162  160  161 1   
   163  160  163 1   
   164  160  169 1   
   165  161  162 2   
   166  161  174 1   
   167  163  164 1   
   168  163  170 1   
   169  163  171 1   
   170  164  165 1   
   171  164  172 1   
   172  164  173 1   
   173  165  166 1   
   174  165  167 1   
   175  174  175 1   
   176  174  179 1   
   177  175  176 1   
   178  175  177 1   
   179  175  178 1   
   180  181  183 1   
   181  181  185 1   
   182  182  184 1   
   183  182  186 1   
@<TRIPOS>SUBSTRUCTURE
     1 MOL         1 TEMP              0 ****  ****    0 ROOT
