@<TRIPOS>MOLECULE
MOL
  179   176     1     0     0
SMALL
resp


@<TRIPOS>ATOM
      1 C1          1.1300    2.6060    5.9700 c3        1 MOL     -0.277627
      2 C2          0.6880    2.5360    4.5280 c         1 MOL      0.696014
      3 O1          1.4400    2.6850    3.5900 o         1 MOL     -0.563916
      4 H1          0.6530    3.4570    6.4560 hc        1 MOL      0.074325
      5 H2          0.8430    1.6890    6.4840 hc        1 MOL      0.074325
      6 H3          2.2130    2.7250    6.0130 hc        1 MOL      0.074325
      7 N1         -0.6440    2.3250    4.2650 n         1 MOL     -0.591148
      8 C3         -1.2840    1.9780    3.0150 c3        1 MOL      0.207202
      9 C4         -1.5160    3.2420    2.1810 c         1 MOL      0.411275
     10 O2         -2.5750    3.8300    2.1560 o         1 MOL     -0.457461
     11 C5         -2.4990    1.0420    3.3820 c3        1 MOL     -0.198041
     12 C6         -3.2980    0.6770    2.1330 c         1 MOL      0.837497
     13 O3         -4.4650    0.2580    2.2740 o         1 MOL     -0.745935
     14 O4         -2.7610    0.7860    1.0440 o         1 MOL     -0.745935
     15 H4         -1.2340    2.2020    5.0840 hn        1 MOL      0.293355
     16 H5         -0.6670    1.3220    2.3860 h1        1 MOL      0.002239
     17 H6         -3.1450    1.5750    4.0770 hc        1 MOL      0.044353
     18 H7         -2.2060    0.0820    3.8100 hc        1 MOL      0.044353
     19 N2         -0.4550    3.7390    1.5230 n         1 MOL     -0.188682
     20 C7         -0.2990    5.0320    0.8450 c3        1 MOL     -0.051112
     21 C8         -1.3650    5.3410   -0.1880 c         1 MOL      0.513533
     22 O5         -1.6660    6.4900   -0.3310 o         1 MOL     -0.590177
     23 C9          1.0740    5.0470    0.1440 c3        1 MOL      0.062816
     24 C10         1.5220    6.4610   -0.0790 c3        1 MOL     -0.213489
     25 C11         2.8620    6.5330   -0.8020 c3        1 MOL      0.079350
     26 C12         3.0630    7.9740   -1.1870 c3        1 MOL      0.121498
     27 N3          4.0560    8.3130   -2.2050 n4        1 MOL     -0.406413
     28 H8          0.4100    3.2280    1.6160 hn        1 MOL      0.087246
     29 H9         -0.3820    5.8410    1.5660 h1        1 MOL      0.089967
     30 H10         1.0640    4.5050   -0.7980 hc        1 MOL      0.039321
     31 H11         1.8380    4.5570    0.7450 hc        1 MOL      0.039321
     32 H12         1.6460    6.9360    0.8860 hc        1 MOL      0.066288
     33 H13         0.8110    6.9220   -0.7660 hc        1 MOL      0.066288
     34 H14         2.8730    6.0080   -1.7580 hc        1 MOL      0.015532
     35 H15         3.6070    6.1180   -0.1170 hc        1 MOL      0.015532
     36 H16         3.3890    8.4880   -0.2860 hx        1 MOL      0.052920
     37 H17         2.1300    8.4480   -1.4920 hx        1 MOL      0.052920
     38 H18         4.9300    7.8320   -2.0630 hn        1 MOL      0.333548
     39 H19         3.6840    8.1770   -3.1240 hn        1 MOL      0.333548
     40 H20         4.1760    9.3130   -2.3190 hn        1 MOL      0.333548
     41 N4         -2.0190    4.3700   -0.8140 n         1 MOL     -0.113442
     42 C13        -3.1700    4.5620   -1.7030 c3        1 MOL     -0.047065
     43 C14        -4.5220    4.0540   -1.1660 c         1 MOL      0.383846
     44 O6         -5.5660    4.2590   -1.7940 o         1 MOL     -0.529008
     45 C15        -2.9080    4.0240   -3.1500 c3        1 MOL     -0.352518
     46 C16        -2.4820    2.5310   -3.2020 c         1 MOL      0.726873
     47 O7         -2.1880    1.8340   -2.1430 o         1 MOL     -0.680709
     48 O8         -2.2180    1.9980   -4.2920 o         1 MOL     -0.680709
     49 H21        -1.6550    3.4250   -0.8690 hn        1 MOL      0.105768
     50 H22        -3.4370    5.6220   -1.7510 h1        1 MOL      0.117283
     51 H23        -2.1420    4.6540   -3.6060 hc        1 MOL      0.116446
     52 H24        -3.7320    4.1930   -3.8430 hc        1 MOL      0.116446
     53 N5         -4.5840    3.2960   -0.0580 n         1 MOL      0.121585
     54 C17        -5.7950    2.9930    0.7450 c3        1 MOL     -0.219934
     55 C18        -6.6760    1.9850   -0.0240 c         1 MOL      0.488060
     56 O9         -7.8380    2.2790   -0.3040 o         1 MOL     -0.534204
     57 H25        -3.7140    3.1040    0.4130 hn        1 MOL     -0.115268
     58 H26        -6.2590    3.9510    0.9730 h1        1 MOL      0.114833
     59 H27        -5.5180    2.6010    1.7200 h1        1 MOL      0.114833
     60 N6         -6.0410    0.8290   -0.3280 n         1 MOL     -0.174291
     61 C19        -6.6320   -0.3770   -0.9740 c3        1 MOL     -0.014334
     62 C20        -6.6530   -1.6120   -0.0900 c         1 MOL      0.491000
     63 O10        -7.0040   -2.7090   -0.5050 o         1 MOL     -0.551611
     64 C21        -5.9640   -0.6890   -2.3220 c3        1 MOL      0.000028
     65 C22        -4.4230   -0.7760   -2.3540 c         1 MOL      0.535202
     66 N7         -3.8360   -0.8490   -3.5080 n         1 MOL     -0.508346
     67 O11        -3.7200   -0.8760   -1.3440 o         1 MOL     -0.563107
     68 H28        -5.0660    0.7520   -0.0810 hn        1 MOL      0.025083
     69 H29        -7.6930   -0.1440   -1.0500 h1        1 MOL      0.079979
     70 H30        -6.2820    0.1550   -2.9310 hc        1 MOL      0.032470
     71 H31        -6.4470   -1.5150   -2.8420 hc        1 MOL      0.032470
     72 H32        -4.4110   -0.8610   -4.3350 hn        1 MOL      0.263278
     73 H33        -2.8330   -0.7910   -3.6180 hn        1 MOL      0.263278
     74 N8         -6.3720   -1.4680    1.1810 n         1 MOL     -0.352195
     75 C23        -6.3430   -2.5100    2.2470 c3        1 MOL     -0.108378
     76 C24        -5.1830   -3.5490    2.1950 c         1 MOL      0.426076
     77 O12        -5.2800   -4.5830    2.8210 o         1 MOL     -0.540672
     78 H34        -6.1320   -0.5410    1.5050 hn        1 MOL      0.284027
     79 H35        -7.3320   -2.9860    2.2100 h1        1 MOL      0.109030
     80 H36        -6.4460   -2.0640    3.2300 h1        1 MOL      0.109030
     81 N9         -4.0970   -3.2300    1.4850 n         1 MOL     -0.250063
     82 C25        -2.8640   -4.0630    1.5770 c3        1 MOL      0.323003
     83 C26        -1.5720   -3.2610    1.3550 c         1 MOL      0.091151
     84 O13        -1.6080   -2.1080    0.8720 o         1 MOL     -0.481996
     85 C27        -2.9000   -5.1590    0.5860 c3        1 MOL     -0.175231
     86 C28        -3.0310   -4.7760   -0.8790 ca        1 MOL      0.158518
     87 C29        -1.9480   -4.5010   -1.7560 ca        1 MOL     -0.248534
     88 C30        -4.2500   -4.8420   -1.5140 ca        1 MOL     -0.248534
     89 C31        -2.1000   -4.2200   -3.1150 ca        1 MOL     -0.182743
     90 C32        -4.4630   -4.5990   -2.8800 ca        1 MOL     -0.182743
     91 C33        -3.3720   -4.1630   -3.6990 ca        1 MOL      0.217965
     92 O14        -3.6290   -3.9900   -5.0440 oh        1 MOL     -0.441407
     93 H37        -4.1130   -2.3590    0.9660 hn        1 MOL      0.288505
     94 H38        -2.8090   -4.5390    2.5510 h1        1 MOL      0.021828
     95 H39        -3.6970   -5.8280    0.9250 hc        1 MOL      0.054414
     96 H40        -1.9880   -5.7390    0.7290 hc        1 MOL      0.054414
     97 H41        -0.9600   -4.4500   -1.3100 ha        1 MOL      0.179978
     98 H42        -5.0370   -5.3390   -0.9680 ha        1 MOL      0.179978
     99 H43        -1.1930   -4.0200   -3.6730 ha        1 MOL      0.137393
    100 H44        -5.3850   -4.6890   -3.4290 ha        1 MOL      0.137393
    101 H45        -2.7870   -3.8320   -5.4670 ho        1 MOL      0.332579
    102 N10        -0.4130   -3.8320    1.7030 n         1 MOL     -0.370634
    103 C34         0.9500   -3.1900    1.7590 c3        1 MOL     -0.114781
    104 C35         1.9360   -4.0480    0.9520 c         1 MOL      0.446553
    105 O15         1.8740   -5.2800    0.9310 o         1 MOL     -0.532464
    106 C36         1.3410   -3.0970    3.2630 c3        1 MOL      0.140715
    107 C37         0.2290   -2.2530    3.9940 c3        1 MOL      0.069518
    108 C38         2.7120   -2.5030    3.4250 c3        1 MOL     -0.310022
    109 C39         0.2840   -2.2170    5.5360 c3        1 MOL     -0.323584
    110 H46        -0.4940   -4.7190    2.1870 hn        1 MOL      0.309378
    111 H47         1.0540   -2.2170    1.2860 h1        1 MOL      0.148656
    112 H48         1.2840   -4.0850    3.7220 hc        1 MOL      0.007055
    113 H49        -0.7820   -2.6440    3.8570 hc        1 MOL      0.066102
    114 H50         0.2400   -1.2310    3.6160 hc        1 MOL      0.066102
    115 H51         3.3960   -2.8440    2.6520 hc        1 MOL      0.064280
    116 H52         2.5470   -1.4340    3.3640 hc        1 MOL      0.064280
    117 H53         3.0480   -2.8020    4.4260 hc        1 MOL      0.064280
    118 H54         0.1320   -3.2570    5.8120 hc        1 MOL      0.077115
    119 H55         1.2540   -1.8680    5.8650 hc        1 MOL      0.077115
    120 H56        -0.5630   -1.7220    6.0150 hc        1 MOL      0.077115
    121 N11         2.8980   -3.3580    0.3410 n         1 MOL      0.036687
    122 C40         3.9280   -3.9680   -0.5080 c3        1 MOL     -0.209098
    123 C41         5.3230   -3.2510   -0.2460 c         1 MOL      0.263033
    124 O16         5.2810   -2.1160    0.2630 o         1 MOL     -0.205931
    125 C42         3.4650   -3.7970   -1.9890 c3        1 MOL      0.281510
    126 O17         2.3180   -4.4920   -2.4200 oh        1 MOL     -0.679944
    127 H57         2.9540   -2.3550    0.3330 hn        1 MOL      0.139827
    128 H58         4.0820   -5.0280   -0.2790 h1        1 MOL      0.124356
    129 H59         4.2940   -3.8770   -2.7020 h1        1 MOL     -0.001708
    130 H60         3.1990   -2.7520   -2.1640 h1        1 MOL     -0.001708
    131 H61         2.6320   -5.3100   -2.8090 ho        1 MOL      0.438612
    132 N12         6.5310   -3.8120   -0.5080 n         1 MOL     -0.354216
    133 C43         7.8530   -3.2430   -0.2330 c3        1 MOL      0.132367
    134 C44         8.2070   -1.7750   -0.6170 c         1 MOL      0.434999
    135 O18         8.5830   -0.9390    0.2540 o         1 MOL     -0.485916
    136 C45         8.8850   -4.2030   -0.8580 c3        1 MOL     -0.342281
    137 H62         6.4950   -4.7270   -0.9280 hn        1 MOL      0.280366
    138 H63         8.0240   -3.3390    0.8390 h1        1 MOL      0.087429
    139 H64         9.9150   -3.8470   -0.8210 hc        1 MOL      0.105057
    140 H65         8.8410   -5.1610   -0.3410 hc        1 MOL      0.105057
    141 H66         8.6040   -4.3210   -1.9010 hc        1 MOL      0.105057
    142 N13         8.0500   -1.3620   -1.9310 n         1 MOL     -0.444185
    143 C46         8.2390    0.1030   -2.3470 c3        1 MOL      0.096354
    144 C47         7.3110    1.0340   -1.5810 c         1 MOL      0.532259
    145 O19         7.6700    2.1880   -1.4100 o         1 MOL     -0.543635
    146 C48         7.9910    0.1150   -3.8990 c3        1 MOL     -0.263898
    147 H67         7.8150   -2.0530   -2.6330 hn        1 MOL      0.285911
    148 H68         9.2530    0.4370   -2.1230 h1        1 MOL      0.100036
    149 H69         7.0020   -0.2600   -4.1790 hc        1 MOL      0.080293
    150 H70         8.1340    1.1530   -4.1920 hc        1 MOL      0.080293
    151 H71         8.7060   -0.4990   -4.4390 hc        1 MOL      0.080293
    152 N14         6.1210    0.5870   -1.2500 n         1 MOL     -0.330415
    153 C49         5.2070    1.4030   -0.3860 c3        1 MOL     -0.000492
    154 C50         5.6760    1.4190    1.0930 c         1 MOL      0.444647
    155 O20         5.7640    2.5230    1.6700 o         1 MOL     -0.557015
    156 C51         3.7140    0.9600   -0.5880 c3        1 MOL     -0.234578
    157 C52         2.7460    1.6230    0.4400 c3        1 MOL     -0.208325
    158 C53         1.3320    1.1610    0.1370 c         1 MOL      0.732263
    159 O21         0.7470    0.2330    0.7780 o         1 MOL     -0.754297
    160 O22         0.7320    1.6000   -0.8900 o         1 MOL     -0.754297
    161 H72         5.9320   -0.3790   -1.4370 hn        1 MOL      0.156426
    162 H73         5.2430    2.4110   -0.7890 h1        1 MOL      0.086017
    163 H74         3.6120   -0.1230   -0.4860 hc        1 MOL      0.099313
    164 H75         3.4360    1.2280   -1.6070 hc        1 MOL      0.099313
    165 H76         2.8850    2.6990    0.3180 hc        1 MOL      0.108077
    166 H77         2.9810    1.5840    1.5040 hc        1 MOL      0.108077
    167 N15         6.0440    0.3200    1.6790 n         1 MOL      0.026892
    168 C54         6.4980    0.1690    3.1050 c3        1 MOL     -0.290779
    169 H78         7.5090    0.5620    3.2080 h1        1 MOL      0.118976
    170 H79         5.8260    0.7230    3.7620 h1        1 MOL      0.118976
    171 H80         6.4880   -0.8850    3.3810 h1        1 MOL      0.118976
    172 H81         5.8070   -0.5230    1.1810 hn        1 MOL     -0.030737
    173 Ca1        -1.2280   -0.0950   -0.7830 Ca        1 MOL      1.814788
    174 O23         0.5160   -2.1260   -1.3840 oh        1 MOL     -0.933933
    175 H82         0.8640   -3.0180   -1.3550 ho        1 MOL      0.435625
    176 H83         0.9670   -1.7220   -2.1300 ho        1 MOL      0.435625
    177 O24        -0.9450   -0.3220   -3.6010 oh        1 MOL     -0.933933
    178 H84        -1.3280    0.4780   -3.9700 ho        1 MOL      0.435625
    179 H85        -0.6170   -0.7980   -4.3740 ho        1 MOL      0.435625
@<TRIPOS>BOND
     1    1    2 1   
     2    1    4 1   
     3    1    5 1   
     4    1    6 1   
     5    2    3 2   
     6    2    7 1   
     7    7    8 1   
     8    7   15 1   
     9    8    9 1   
    10    8   11 1   
    11    8   16 1   
    12    9   10 2   
    13    9   19 1   
    14   11   12 1   
    15   11   17 1   
    16   11   18 1   
    17   12   13 1   
    18   12   14 1   
    19   19   20 1   
    20   19   28 1   
    21   20   21 1   
    22   20   23 1   
    23   20   29 1   
    24   21   22 2   
    25   21   41 1   
    26   23   24 1   
    27   23   30 1   
    28   23   31 1   
    29   24   25 1   
    30   24   32 1   
    31   24   33 1   
    32   25   26 1   
    33   25   34 1   
    34   25   35 1   
    35   26   27 1   
    36   26   36 1   
    37   26   37 1   
    38   27   38 1   
    39   27   39 1   
    40   27   40 1   
    41   41   42 1   
    42   41   49 1   
    43   42   43 1   
    44   42   45 1   
    45   42   50 1   
    46   43   44 2   
    47   43   53 1   
    48   45   46 1   
    49   45   51 1   
    50   45   52 1   
    51   46   47 1   
    52   46   48 1   
    53   53   54 1   
    54   53   57 1   
    55   54   55 1   
    56   54   58 1   
    57   54   59 1   
    58   55   56 2   
    59   55   60 1   
    60   60   61 1   
    61   60   68 1   
    62   61   62 1   
    63   61   64 1   
    64   61   69 1   
    65   62   63 2   
    66   62   74 1   
    67   64   65 1   
    68   64   70 1   
    69   64   71 1   
    70   65   66 1   
    71   65   67 2   
    72   66   72 1   
    73   66   73 1   
    74   74   75 1   
    75   74   78 1   
    76   75   76 1   
    77   75   79 1   
    78   75   80 1   
    79   76   77 2   
    80   76   81 1   
    81   81   82 1   
    82   81   93 1   
    83   82   83 1   
    84   82   85 1   
    85   82   94 1   
    86   83   84 2   
    87   83  102 1   
    88   85   86 1   
    89   85   95 1   
    90   85   96 1   
    91   86   87 ar  
    92   86   88 ar  
    93   87   89 ar  
    94   87   97 1   
    95   88   90 ar  
    96   88   98 1   
    97   89   91 ar  
    98   89   99 1   
    99   90   91 ar  
   100   90  100 1   
   101   91   92 1   
   102   92  101 1   
   103  102  103 1   
   104  102  110 1   
   105  103  104 1   
   106  103  106 1   
   107  103  111 1   
   108  104  105 2   
   109  104  121 1   
   110  106  107 1   
   111  106  108 1   
   112  106  112 1   
   113  107  109 1   
   114  107  113 1   
   115  107  114 1   
   116  108  115 1   
   117  108  116 1   
   118  108  117 1   
   119  109  118 1   
   120  109  119 1   
   121  109  120 1   
   122  121  122 1   
   123  121  127 1   
   124  122  123 1   
   125  122  125 1   
   126  122  128 1   
   127  123  124 2   
   128  123  132 1   
   129  125  126 1   
   130  125  129 1   
   131  125  130 1   
   132  126  131 1   
   133  132  133 1   
   134  132  137 1   
   135  133  134 1   
   136  133  136 1   
   137  133  138 1   
   138  134  135 2   
   139  134  142 1   
   140  136  139 1   
   141  136  140 1   
   142  136  141 1   
   143  142  143 1   
   144  142  147 1   
   145  143  144 1   
   146  143  146 1   
   147  143  148 1   
   148  144  145 2   
   149  144  152 1   
   150  146  149 1   
   151  146  150 1   
   152  146  151 1   
   153  152  153 1   
   154  152  161 1   
   155  153  154 1   
   156  153  156 1   
   157  153  162 1   
   158  154  155 2   
   159  154  167 1   
   160  156  157 1   
   161  156  163 1   
   162  156  164 1   
   163  157  158 1   
   164  157  165 1   
   165  157  166 1   
   166  158  159 1   
   167  158  160 1   
   168  167  168 1   
   169  167  172 1   
   170  168  169 1   
   171  168  170 1   
   172  168  171 1   
   173  174  175 1   
   174  174  176 1   
   175  177  178 1   
   176  177  179 1   
@<TRIPOS>SUBSTRUCTURE
     1 MOL         1 TEMP              0 ****  ****    0 ROOT
