@<TRIPOS>MOLECULE
MOL
  186   183     1     0     0
SMALL
resp


@<TRIPOS>ATOM
      1 C1          0.8640   -1.6570    6.4750 c3        1 MOL     -0.265841
      2 C2          1.1050   -1.7020    4.9390 c         1 MOL      0.736633
      3 O1          0.1360   -1.9680    4.1950 o         1 MOL     -0.601851
      4 H1          0.3090   -2.5440    6.7810 hc        1 MOL      0.059639
      5 H2          1.8220   -1.6330    6.9930 hc        1 MOL      0.059639
      6 H3          0.2910   -0.7650    6.7280 hc        1 MOL      0.059639
      7 N1          2.3170   -1.5250    4.4320 n         1 MOL     -0.658806
      8 C3          2.7150   -1.6600    3.0280 c3        1 MOL      0.072296
      9 C4          2.8450   -3.1670    2.6090 c         1 MOL      0.774724
     10 O2          3.6520   -3.8990    3.1140 o         1 MOL     -0.598645
     11 C5          3.9640   -0.9300    2.6550 c3        1 MOL     -0.179094
     12 C6          4.4190   -0.9750    1.1610 c         1 MOL      0.522835
     13 O3          5.6540   -0.7130    0.9820 o         1 MOL     -0.497855
     14 O4          3.6330   -1.2870    0.2680 o         1 MOL     -0.497855
     15 H4          3.0630   -1.2450    5.0580 hn        1 MOL      0.321931
     16 H5          1.8860   -1.1800    2.5030 h1        1 MOL      0.050565
     17 H6          4.8660   -1.3020    3.1370 hc        1 MOL      0.054609
     18 H7          3.8500    0.1050    2.9920 hc        1 MOL      0.054609
     19 N2          2.0340   -3.6480    1.6430 n         1 MOL     -0.604349
     20 C7          2.0140   -5.0310    1.2130 c3        1 MOL     -0.153813
     21 C8          3.1280   -5.2380    0.0920 c         1 MOL      0.514237
     22 O5          3.7180   -6.3200   -0.0200 o         1 MOL     -0.577597
     23 C9          0.5990   -5.5410    0.8590 c3        1 MOL      0.471828
     24 C10        -0.4730   -5.2620    1.9700 c3        1 MOL      0.159973
     25 C11         0.6050   -7.1090    0.6840 c3        1 MOL     -0.449128
     26 C12        -1.9380   -5.5510    1.5950 c3        1 MOL     -0.160526
     27 H8          1.4930   -2.9590    1.1420 hn        1 MOL      0.326467
     28 H9          2.3030   -5.5740    2.1120 h1        1 MOL      0.106923
     29 H10         0.2370   -5.0830   -0.0600 hc        1 MOL     -0.052524
     30 H11        -0.3870   -4.1740    2.0650 hc        1 MOL     -0.056580
     31 H12        -0.1620   -5.8470    2.8280 hc        1 MOL     -0.056580
     32 H13         0.7200   -7.5200    1.6830 hc        1 MOL      0.076547
     33 H14        -0.2740   -7.4970    0.1880 hc        1 MOL      0.076547
     34 H15         1.4560   -7.2690    0.0160 hc        1 MOL      0.076547
     35 H16        -2.0240   -6.5250    1.1100 hc        1 MOL      0.031280
     36 H17        -2.5870   -5.4480    2.4610 hc        1 MOL      0.031280
     37 H18        -2.3370   -4.8950    0.8150 hc        1 MOL      0.031280
     38 N3          3.4390   -4.1910   -0.6950 n         1 MOL     -0.302812
     39 C13         4.2810   -4.3040   -1.9320 c3        1 MOL      0.068635
     40 C14         5.7310   -3.8540   -1.6640 c         1 MOL      0.464104
     41 O6          6.5210   -4.2430   -2.4880 o         1 MOL     -0.530266
     42 C15         3.6350   -3.6940   -3.2000 c3        1 MOL     -0.249795
     43 C16         2.8760   -2.4350   -2.9360 c         1 MOL      0.756581
     44 O7          3.4190   -1.3160   -3.1320 o         1 MOL     -0.730592
     45 O8          1.7150   -2.5960   -2.4640 o         1 MOL     -0.730592
     46 H19         2.9530   -3.3250   -0.5260 hn        1 MOL      0.231726
     47 H20         4.4110   -5.3590   -2.1720 h1        1 MOL      0.076324
     48 H21         2.8940   -4.3120   -3.7160 hc        1 MOL      0.057416
     49 H22         4.4520   -3.4440   -3.8710 hc        1 MOL      0.057416
     50 N4          6.0410   -3.0770   -0.6170 n         1 MOL     -0.201543
     51 C17         7.4260   -2.8350   -0.2390 c3        1 MOL     -0.135124
     52 C18         7.9550   -1.6850   -1.0470 c         1 MOL      0.544194
     53 O9          8.9860   -1.8170   -1.6180 o         1 MOL     -0.628917
     54 H23         5.2970   -2.4860   -0.2640 hn        1 MOL      0.138220
     55 H24         7.9750   -3.7770   -0.2410 h1        1 MOL      0.072700
     56 H25         7.4740   -2.3850    0.7550 h1        1 MOL      0.072700
     57 N5          7.1790   -0.6690   -1.1890 n         1 MOL     -0.042117
     58 C19         7.5150    0.6130   -1.8290 c3        1 MOL     -0.053377
     59 C20         7.6090    1.8110   -0.8160 c         1 MOL      0.378562
     60 O10         8.0930    2.9130   -1.1830 o         1 MOL     -0.541162
     61 C21         6.4880    0.9390   -2.9810 c3        1 MOL     -0.033517
     62 C22         5.1890    1.5780   -2.5490 c         1 MOL      0.642231
     63 O11         4.6240    2.3620   -3.3360 o         1 MOL     -0.697618
     64 O12         4.6700    1.2560   -1.4570 o         1 MOL     -0.697618
     65 H26         6.3760   -0.7960   -0.5870 hn        1 MOL     -0.086096
     66 H27         8.4930    0.4900   -2.2920 h1        1 MOL      0.081625
     67 H28         6.1780    0.0210   -3.4830 hc        1 MOL      0.027101
     68 H29         7.0000    1.4450   -3.7940 hc        1 MOL      0.027101
     69 N6          7.1200    1.6020    0.4100 n         1 MOL     -0.216398
     70 C23         7.1160    2.6030    1.4590 c3        1 MOL     -0.067369
     71 C24         6.0340    3.6980    1.3980 c         1 MOL      0.501310
     72 O13         6.2150    4.7480    2.0220 o         1 MOL     -0.595860
     73 H30         6.6400    0.7580    0.6710 hn        1 MOL      0.171967
     74 H31         8.0770    3.0940    1.5760 h1        1 MOL      0.057445
     75 H32         6.9220    2.1020    2.4120 h1        1 MOL      0.057445
     76 N7          4.9350    3.4400    0.6860 n         1 MOL     -0.233965
     77 C25         3.6430    4.1280    0.9770 c3        1 MOL     -0.026444
     78 C26         2.4450    3.1700    1.0700 c         1 MOL      0.600432
     79 O14         2.5630    1.9850    0.7140 o         1 MOL     -0.632699
     80 C27         3.3530    5.3130   -0.0000 c3        1 MOL     -0.081133
     81 C28         4.4790    6.3630    0.0690 c3        1 MOL     -0.050330
     82 C29         4.0420    7.7120   -0.5450 c         1 MOL      0.645004
     83 N8          5.0260    8.5460   -0.7560 n         1 MOL     -0.832421
     84 O15         2.9170    7.9310   -0.9660 o         1 MOL     -0.574116
     85 H33         4.8650    2.6890    0.0210 hn        1 MOL      0.274042
     86 H34         3.8480    4.6150    1.9360 h1        1 MOL      0.068987
     87 H35         2.4130    5.7840    0.3050 hc        1 MOL      0.035353
     88 H36         3.3370    4.9690   -1.0310 hc        1 MOL      0.035353
     89 H37         5.3790    5.9850   -0.4270 hc        1 MOL      0.044523
     90 H38         4.6960    6.6440    1.0990 hc        1 MOL      0.044523
     91 H39         5.9660    8.2140   -0.5990 hn        1 MOL      0.364172
     92 H40         4.7930    9.3430   -1.3250 hn        1 MOL      0.364172
     93 N9          1.2870    3.5810    1.5470 n         1 MOL     -0.581716
     94 C30         0.0400    2.8110    1.7040 c3        1 MOL      0.077914
     95 C31        -1.1220    3.3520    0.8490 c         1 MOL      0.522013
     96 O16        -1.5380    4.4490    1.1520 o         1 MOL     -0.576393
     97 C32        -0.3160    2.6700    3.2210 c3        1 MOL      0.315087
     98 C33        -1.7140    2.1560    3.5150 c3        1 MOL     -0.315447
     99 C34         0.7380    1.9880    4.0070 c3        1 MOL     -0.315447
    100 H41         1.1900    4.5760    1.6870 hn        1 MOL      0.318706
    101 H42         0.1960    1.7890    1.3550 h1        1 MOL      0.079643
    102 H43        -0.2990    3.6790    3.6380 hc        1 MOL     -0.051744
    103 H44        -2.0190    2.1840    4.5590 hc        1 MOL      0.068478
    104 H45        -2.5080    2.6540    2.9570 hc        1 MOL      0.068478
    105 H46        -1.7910    1.0870    3.2970 hc        1 MOL      0.068478
    106 H47         1.7220    2.4600    3.9060 hc        1 MOL      0.068478
    107 H48         0.4150    2.0480    5.0480 hc        1 MOL      0.068478
    108 H49         0.9390    0.9530    3.7010 hc        1 MOL      0.068478
    109 N10        -1.6760    2.5800   -0.0920 n         1 MOL     -0.417564
    110 C35        -2.9700    2.8760   -0.8710 c3        1 MOL      0.166055
    111 C36        -4.1860    2.2490   -0.1640 c         1 MOL      0.403148
    112 O17        -4.0660    1.5750    0.8470 o         1 MOL     -0.297377
    113 C37        -2.8840    2.4610   -2.3690 c3        1 MOL     -0.504162
    114 C38        -3.3210    1.0640   -2.7900 c         1 MOL      0.626485
    115 N11        -2.4050    0.1090   -2.6300 n         1 MOL     -0.730715
    116 O18        -4.4090    0.7860   -3.2040 o         1 MOL     -0.556055
    117 H50        -1.2520    1.6970   -0.3310 hn        1 MOL      0.282676
    118 H51        -3.1760    3.9340   -0.7860 h1        1 MOL      0.044652
    119 H52        -1.9080    2.6290   -2.8220 hc        1 MOL      0.158562
    120 H53        -3.6200    3.1090   -2.8510 hc        1 MOL      0.158562
    121 H54        -1.5030    0.3730   -2.2480 hn        1 MOL      0.410777
    122 H55        -2.7220   -0.8440   -2.7310 hn        1 MOL      0.410777
    123 N12        -5.3810    2.5620   -0.6640 n         1 MOL     -0.465256
    124 C39        -6.6920    2.1760   -0.2280 c3        1 MOL      0.143284
    125 C40        -6.7460    0.6840   -0.0210 c         1 MOL      0.419198
    126 O19        -7.0430    0.1940    1.1050 o         1 MOL     -0.549667
    127 C41        -7.7340    2.6500   -1.2230 c3        1 MOL     -0.185740
    128 C42        -9.1440    2.4280   -0.7470 ca        1 MOL      0.035663
    129 C43        -9.5950    3.1730    0.3420 ca        1 MOL     -0.157744
    130 C44        -9.9240    1.3680   -1.3150 ca        1 MOL     -0.157744
    131 C45       -10.7500    2.7940    0.9780 ca        1 MOL     -0.267732
    132 C46       -11.1500    1.1100   -0.7520 ca        1 MOL     -0.267732
    133 C47       -11.4770    1.7020    0.4930 ca        1 MOL      0.399427
    134 O20       -12.6800    1.3700    0.9870 oh        1 MOL     -0.559834
    135 H56        -5.2510    3.1910   -1.4470 hn        1 MOL      0.271836
    136 H57        -6.9270    2.6810    0.7080 h1        1 MOL      0.051701
    137 H58        -7.5860    2.0780   -2.1350 hc        1 MOL      0.069883
    138 H59        -7.6470    3.7190   -1.4210 hc        1 MOL      0.069883
    139 H60        -8.9760    3.8910    0.8650 ha        1 MOL      0.149520
    140 H61        -9.4970    0.8210   -2.1440 ha        1 MOL      0.149520
    141 H62       -11.0320    3.2750    1.9050 ha        1 MOL      0.139611
    142 H63       -11.7810    0.3200   -1.1460 ha        1 MOL      0.139611
    143 H64       -13.0490    0.5830    0.5910 ho        1 MOL      0.393333
    144 N13        -6.3500   -0.1050   -0.9820 n         1 MOL     -0.044386
    145 C48        -6.5050   -1.5840   -1.0740 c3        1 MOL     -0.188384
    146 C49        -5.6710   -2.2510    0.0150 c         1 MOL      0.400270
    147 O21        -6.0180   -3.2930    0.5150 o         1 MOL     -0.511494
    148 C50        -6.0220   -2.2300   -2.3990 c3        1 MOL      0.137244
    149 C51        -6.9470   -1.8240   -3.5630 c3        1 MOL     -0.358593
    150 C52        -6.7610   -2.7510   -4.7210 c         1 MOL      0.772831
    151 O22        -5.9960   -2.4470   -5.6540 o         1 MOL     -0.752027
    152 O23        -7.2400   -3.8630   -4.7910 o         1 MOL     -0.752027
    153 H65        -5.9830    0.5020   -1.6990 hn        1 MOL      0.128282
    154 H66        -7.5530   -1.8610   -0.9710 h1        1 MOL      0.128671
    155 H67        -5.9570   -3.3080   -2.2870 hc        1 MOL      0.029714
    156 H68        -5.0790   -1.7820   -2.7100 hc        1 MOL      0.029714
    157 H69        -6.6990   -0.8010   -3.8570 hc        1 MOL      0.039822
    158 H70        -7.9850   -1.7420   -3.2570 hc        1 MOL      0.039822
    159 N14        -4.6300   -1.5610    0.4570 n         1 MOL     -0.277590
    160 C53        -3.7510   -1.9410    1.5560 c3        1 MOL      0.058591
    161 C54        -4.4620   -1.6050    2.9110 c         1 MOL      0.417547
    162 O24        -4.4650   -2.4210    3.8340 o         1 MOL     -0.550757
    163 C55        -2.4010   -1.3360    1.3870 c3        1 MOL      0.031242
    164 C56        -1.6850   -1.7150    0.0870 c3        1 MOL      0.374177
    165 C57        -0.4770   -0.8950   -0.1200 c         1 MOL      0.943213
    166 O25         0.6620   -1.3000    0.1920 o         1 MOL     -0.896448
    167 O26        -0.4900    0.1100   -0.7990 o         1 MOL     -0.896448
    168 H71        -4.5750   -0.5970    0.1810 hn        1 MOL      0.226169
    169 H72        -3.6160   -3.0280    1.5940 h1        1 MOL      0.068284
    170 H73        -1.7210   -1.6760    2.1730 hc        1 MOL     -0.027836
    171 H74        -2.4310   -0.2440    1.3340 hc        1 MOL     -0.027836
    172 H75        -2.3170   -1.5040   -0.7740 hc        1 MOL     -0.187461
    173 H76        -1.4130   -2.7660    0.1560 hc        1 MOL     -0.187461
    174 N15        -5.0680   -0.3910    3.0220 n         1 MOL      0.024672
    175 C58        -5.7390    0.2590    4.1890 c3        1 MOL     -0.432881
    176 H77        -6.6250   -0.3140    4.4640 h1        1 MOL      0.137451
    177 H78        -5.0510    0.2920    5.0330 h1        1 MOL      0.137451
    178 H79        -6.0340    1.2740    3.9200 h1        1 MOL      0.137451
    179 H80        -5.0290    0.1520    2.1710 hn        1 MOL      0.013841
    180 Ca1         2.2590    0.0780   -1.3270 Ca        1 MOL      1.782534
    181 O27         0.9870    0.5010   -3.7420 oh        1 MOL     -0.824779
    182 H81         1.5400    1.1700   -4.1260 ho        1 MOL      0.393351
    183 H82         0.2800    0.3670   -4.3760 ho        1 MOL      0.393351
    184 O28         2.1150    2.6350   -2.2140 oh        1 MOL     -0.824779
    185 H83         3.0310    2.8580   -2.3360 ho        1 MOL      0.393351
    186 H84         1.6360    3.3790   -2.5650 ho        1 MOL      0.393351
@<TRIPOS>BOND
     1    1    2 1   
     2    1    4 1   
     3    1    5 1   
     4    1    6 1   
     5    2    3 2   
     6    2    7 1   
     7    7    8 1   
     8    7   15 1   
     9    8    9 1   
    10    8   11 1   
    11    8   16 1   
    12    9   10 2   
    13    9   19 1   
    14   11   12 1   
    15   11   17 1   
    16   11   18 1   
    17   12   13 1   
    18   12   14 1   
    19   19   20 1   
    20   19   27 1   
    21   20   21 1   
    22   20   23 1   
    23   20   28 1   
    24   21   22 2   
    25   21   38 1   
    26   23   24 1   
    27   23   25 1   
    28   23   29 1   
    29   24   26 1   
    30   24   30 1   
    31   24   31 1   
    32   25   32 1   
    33   25   33 1   
    34   25   34 1   
    35   26   35 1   
    36   26   36 1   
    37   26   37 1   
    38   38   39 1   
    39   38   46 1   
    40   39   40 1   
    41   39   42 1   
    42   39   47 1   
    43   40   41 2   
    44   40   50 1   
    45   42   43 1   
    46   42   48 1   
    47   42   49 1   
    48   43   44 1   
    49   43   45 1   
    50   50   51 1   
    51   50   54 1   
    52   51   52 1   
    53   51   55 1   
    54   51   56 1   
    55   52   53 2   
    56   52   57 1   
    57   57   58 1   
    58   57   65 1   
    59   58   59 1   
    60   58   61 1   
    61   58   66 1   
    62   59   60 2   
    63   59   69 1   
    64   61   62 1   
    65   61   67 1   
    66   61   68 1   
    67   62   63 1   
    68   62   64 1   
    69   69   70 1   
    70   69   73 1   
    71   70   71 1   
    72   70   74 1   
    73   70   75 1   
    74   71   72 2   
    75   71   76 1   
    76   76   77 1   
    77   76   85 1   
    78   77   78 1   
    79   77   80 1   
    80   77   86 1   
    81   78   79 2   
    82   78   93 1   
    83   80   81 1   
    84   80   87 1   
    85   80   88 1   
    86   81   82 1   
    87   81   89 1   
    88   81   90 1   
    89   82   83 1   
    90   82   84 2   
    91   83   91 1   
    92   83   92 1   
    93   93   94 1   
    94   93  100 1   
    95   94   95 1   
    96   94   97 1   
    97   94  101 1   
    98   95   96 2   
    99   95  109 1   
   100   97   98 1   
   101   97   99 1   
   102   97  102 1   
   103   98  103 1   
   104   98  104 1   
   105   98  105 1   
   106   99  106 1   
   107   99  107 1   
   108   99  108 1   
   109  109  110 1   
   110  109  117 1   
   111  110  111 1   
   112  110  113 1   
   113  110  118 1   
   114  111  112 2   
   115  111  123 1   
   116  113  114 1   
   117  113  119 1   
   118  113  120 1   
   119  114  115 1   
   120  114  116 2   
   121  115  121 1   
   122  115  122 1   
   123  123  124 1   
   124  123  135 1   
   125  124  125 1   
   126  124  127 1   
   127  124  136 1   
   128  125  126 2   
   129  125  144 1   
   130  127  128 1   
   131  127  137 1   
   132  127  138 1   
   133  128  129 ar  
   134  128  130 ar  
   135  129  131 ar  
   136  129  139 1   
   137  130  132 ar  
   138  130  140 1   
   139  131  133 ar  
   140  131  141 1   
   141  132  133 ar  
   142  132  142 1   
   143  133  134 1   
   144  134  143 1   
   145  144  145 1   
   146  144  153 1   
   147  145  146 1   
   148  145  148 1   
   149  145  154 1   
   150  146  147 2   
   151  146  159 1   
   152  148  149 1   
   153  148  155 1   
   154  148  156 1   
   155  149  150 1   
   156  149  157 1   
   157  149  158 1   
   158  150  151 1   
   159  150  152 1   
   160  159  160 1   
   161  159  168 1   
   162  160  161 1   
   163  160  163 1   
   164  160  169 1   
   165  161  162 2   
   166  161  174 1   
   167  163  164 1   
   168  163  170 1   
   169  163  171 1   
   170  164  165 1   
   171  164  172 1   
   172  164  173 1   
   173  165  166 1   
   174  165  167 1   
   175  174  175 1   
   176  174  179 1   
   177  175  176 1   
   178  175  177 1   
   179  175  178 1   
   180  181  182 1   
   181  181  183 1   
   182  184  185 1   
   183  184  186 1   
@<TRIPOS>SUBSTRUCTURE
     1 MOL         1 TEMP              0 ****  ****    0 ROOT
