@<TRIPOS>MOLECULE
MOL
  175   173     1     0     0
SMALL
resp


@<TRIPOS>ATOM
      1 C1          0.0530   -3.6680    5.5380 c3        1 MOL     -0.328311
      2 C2          0.7800   -3.7190    4.1610 c         1 MOL      0.721704
      3 O1          0.1700   -3.8360    3.1060 o         1 MOL     -0.546814
      4 H1         -0.0810   -2.6290    5.8380 hc        1 MOL      0.080786
      5 H2         -0.9200   -4.1500    5.4530 hc        1 MOL      0.080786
      6 H3          0.6540   -4.1870    6.2850 hc        1 MOL      0.080786
      7 N1          2.1090   -3.7630    4.0980 n         1 MOL     -0.671116
      8 C3          2.7660   -3.4610    2.8020 c3        1 MOL      0.210377
      9 C4          2.9120   -4.6440    1.8440 c         1 MOL      0.624849
     10 O2          3.3080   -5.7700    2.2760 o         1 MOL     -0.608502
     11 C5          4.1110   -2.7820    3.0810 c3        1 MOL     -0.128830
     12 C6          4.7980   -2.2440    1.8540 c         1 MOL      0.554632
     13 O3          6.0160   -2.3920    1.7430 o         1 MOL     -0.601553
     14 O4          4.1200   -1.8060    0.8520 o         1 MOL     -0.601553
     15 H4          2.6440   -3.5100    4.9190 hn        1 MOL      0.319412
     16 H5          2.1600   -2.6940    2.3150 h1        1 MOL      0.027162
     17 H6          4.7740   -3.4440    3.6310 hc        1 MOL      0.017881
     18 H7          3.9350   -1.9890    3.8210 hc        1 MOL      0.017881
     19 N2          2.6830   -4.4060    0.5660 n         1 MOL     -0.554286
     20 C7          2.8660   -5.4920   -0.4440 c3        1 MOL      0.332174
     21 C8          3.6810   -5.0200   -1.6590 c         1 MOL      0.417274
     22 O5          3.7510   -5.7130   -2.6920 o         1 MOL     -0.561224
     23 C9          1.4040   -5.9500   -0.6740 c3        1 MOL     -0.327519
     24 H8          2.3280   -3.5320    0.2310 hn        1 MOL      0.383965
     25 H9          3.4570   -6.3180   -0.0590 h1        1 MOL      0.023265
     26 H10         0.8750   -5.1770   -1.2240 hc        1 MOL      0.083269
     27 H11         1.4250   -6.9310   -1.1590 hc        1 MOL      0.083269
     28 H12         0.8590   -6.0650    0.2660 hc        1 MOL      0.083269
     29 N3          4.3020   -3.8240   -1.6090 n         1 MOL     -0.287279
     30 C10         5.0630   -3.2700   -2.7300 c3        1 MOL     -0.035146
     31 C11         6.2510   -2.3530   -2.3950 c         1 MOL      0.459490
     32 O6          7.0310   -2.0250   -3.2670 o         1 MOL     -0.544987
     33 C12         4.0510   -2.5840   -3.7020 c3        1 MOL     -0.094953
     34 C13         3.1240   -1.5470   -3.0160 c         1 MOL      0.699162
     35 O7          3.5030   -0.8940   -1.9830 o         1 MOL     -0.674904
     36 O8          1.9720   -1.4150   -3.5160 o         1 MOL     -0.674904
     37 H13         4.1150   -3.2180   -0.8250 hn        1 MOL      0.100358
     38 H14         5.4940   -4.1520   -3.2010 h1        1 MOL      0.099243
     39 H15         3.4890   -3.3730   -4.1920 hc        1 MOL      0.028124
     40 H16         4.5970   -2.0350   -4.4720 hc        1 MOL      0.028124
     41 N4          6.4560   -1.9530   -1.1180 n         1 MOL     -0.287873
     42 C14         7.5450   -1.0580   -0.8400 c3        1 MOL     -0.146453
     43 C15         7.4870    0.4060   -1.2620 c         1 MOL      0.432445
     44 O9          8.5140    1.0460   -1.2670 o         1 MOL     -0.586862
     45 H17         5.7720   -2.1480   -0.3980 hn        1 MOL      0.232240
     46 H18         8.4540   -1.5350   -1.1980 h1        1 MOL      0.093518
     47 H19         7.6320   -0.9940    0.2420 h1        1 MOL      0.093518
     48 N5          6.3370    0.8650   -1.6850 n         1 MOL     -0.031128
     49 C16         6.1520    2.1940   -2.3080 c3        1 MOL     -0.174370
     50 C17         6.0480    3.3510   -1.2800 c         1 MOL      0.457625
     51 O10         6.1630    4.5260   -1.7790 o         1 MOL     -0.523143
     52 C18         4.9310    2.2220   -3.2660 c3        1 MOL      0.023618
     53 C19         3.4910    2.1660   -2.5450 c         1 MOL      0.444678
     54 N6          2.3880    2.1090   -3.2480 n         1 MOL     -0.679691
     55 O11         3.2890    2.1290   -1.3630 o         1 MOL     -0.445327
     56 H20         5.5300    0.2660   -1.7830 hn        1 MOL      0.129949
     57 H21         7.0900    2.3140   -2.8610 h1        1 MOL      0.120807
     58 H22         5.0140    1.3670   -3.9470 hc        1 MOL      0.027757
     59 H23         5.0910    3.0660   -3.9330 hc        1 MOL      0.027757
     60 H24         2.3540    1.9800   -4.2480 hn        1 MOL      0.347344
     61 H25         1.5030    1.9670   -2.7670 hn        1 MOL      0.347344
     62 N7          5.9190    2.9950    0.0090 n         1 MOL     -0.166377
     63 C20         6.0220    4.0070    1.0450 c3        1 MOL     -0.326743
     64 C21         4.7050    4.7560    1.4080 c         1 MOL      0.583911
     65 O12         4.7280    5.8100    2.0660 o         1 MOL     -0.605133
     66 H26         5.7490    2.0470    0.3160 hn        1 MOL      0.170112
     67 H27         6.7260    4.7810    0.7340 h1        1 MOL      0.127765
     68 H28         6.3800    3.5420    1.9630 h1        1 MOL      0.127765
     69 N8          3.6460    4.2280    0.9480 n         1 MOL     -0.253958
     70 C22         2.2560    4.6740    1.1420 c3        1 MOL     -0.086977
     71 C23         1.1850    3.5820    1.3920 c         1 MOL      0.359385
     72 O13         1.3350    2.5150    0.7970 o         1 MOL     -0.434616
     73 C24         1.7480    5.5380    0.0550 c3        1 MOL      0.494470
     74 C25         2.3160    6.9700    0.0160 c3        1 MOL     -0.476562
     75 O14         1.8720    4.9150   -1.2000 oh        1 MOL     -0.613999
     76 H29         3.7480    3.5080    0.2530 hn        1 MOL      0.206810
     77 H30         2.2210    5.2460    2.0720 h1        1 MOL      0.057550
     78 H31         0.6620    5.5580    0.1420 h1        1 MOL     -0.034710
     79 H32         1.4470    4.0540   -1.1930 ho        1 MOL      0.387832
     80 H33         3.3420    6.8540   -0.3260 hc        1 MOL      0.125111
     81 H34         1.7180    7.6570   -0.5690 hc        1 MOL      0.125111
     82 H35         2.3550    7.4000    1.0240 hc        1 MOL      0.125111
     83 N9          0.0920    3.8300    2.0820 n         1 MOL     -0.353174
     84 C26        -1.0890    2.9450    2.1990 c3        1 MOL      0.028964
     85 C27        -1.9260    3.0560    0.9370 c         1 MOL      0.574542
     86 O15        -2.3750    4.1140    0.5760 o         1 MOL     -0.605743
     87 C28        -1.9150    3.2560    3.4550 c3        1 MOL     -0.025445
     88 C29        -1.2820    2.4990    4.6150 c3        1 MOL      0.036577
     89 C30        -3.4010    2.8870    3.3170 c3        1 MOL     -0.144470
     90 C31        -1.9540    3.0120    5.9130 c3        1 MOL     -0.039537
     91 H36        -0.0470    4.8050    2.3120 hn        1 MOL      0.223547
     92 H37        -0.6970    1.9350    2.2850 h1        1 MOL      0.153347
     93 H38        -1.8770    4.2940    3.7830 hc        1 MOL      0.027651
     94 H39        -0.1970    2.5150    4.5490 hc        1 MOL     -0.019251
     95 H40        -1.5810    1.4850    4.4010 hc        1 MOL     -0.019251
     96 H41        -3.4130    1.8320    3.0530 hc        1 MOL      0.040975
     97 H42        -4.0230    3.0900    4.1860 hc        1 MOL      0.040975
     98 H43        -3.8040    3.5130    2.5200 hc        1 MOL      0.040975
     99 H44        -1.6390    4.0390    6.1050 hc        1 MOL      0.005397
    100 H45        -3.0260    2.8450    5.9530 hc        1 MOL      0.005397
    101 H46        -1.5660    2.4400    6.7600 hc        1 MOL      0.005397
    102 N10        -2.1010    1.9440    0.2160 n         1 MOL     -0.058318
    103 C32        -2.8240    1.6890   -1.0750 c3        1 MOL      0.034407
    104 C33        -4.2770    1.4020   -0.8490 c         1 MOL      0.425483
    105 O16        -4.6760    1.0940    0.2450 o         1 MOL     -0.418234
    106 C34        -2.1310    0.6450   -1.8800 c3        1 MOL     -0.297890
    107 C35        -0.7710    1.0520   -2.2810 c         1 MOL      0.757065
    108 O17         0.1230    0.9190   -1.4050 o         1 MOL     -0.687322
    109 O18        -0.5050    1.6230   -3.4080 o         1 MOL     -0.687322
    110 H47        -1.5070    1.1700    0.4830 hn        1 MOL     -0.061687
    111 H48        -2.7330    2.5690   -1.7010 h1        1 MOL      0.052009
    112 H49        -2.8390    0.4370   -2.6900 hc        1 MOL      0.077516
    113 H50        -2.0440   -0.2590   -1.2760 hc        1 MOL      0.077516
    114 N11        -5.0700    1.4990   -1.9070 n         1 MOL     -0.560822
    115 C36        -6.5140    1.1630   -1.6210 c3        1 MOL      0.213962
    116 C37        -6.8090   -0.2110   -1.1270 c         1 MOL      0.417021
    117 O19        -7.5070   -0.3800   -0.1540 o         1 MOL     -0.498318
    118 C38        -7.5290    1.5500   -2.7210 c3        1 MOL     -0.172768
    119 C39        -9.0160    1.3010   -2.4830 ca        1 MOL      0.049742
    120 C40        -9.6680    1.9090   -1.3470 ca        1 MOL     -0.147869
    121 C41        -9.7010    0.4850   -3.3970 ca        1 MOL     -0.147869
    122 C42       -11.0560    1.6970   -1.1530 ca        1 MOL     -0.088941
    123 C43       -11.1020    0.2910   -3.1730 ca        1 MOL     -0.088941
    124 C44       -11.7500    0.8800   -2.0460 ca        1 MOL     -0.156516
    125 H51        -4.7730    1.9570   -2.7500 hn        1 MOL      0.357534
    126 H52        -6.9190    1.8210   -0.8550 h1        1 MOL      0.099773
    127 H53        -7.1750    1.1510   -3.6720 hc        1 MOL      0.059879
    128 H54        -7.5060    2.6320   -2.8740 hc        1 MOL      0.059879
    129 H55        -9.0950    2.4830   -0.6350 ha        1 MOL      0.119551
    130 H56        -9.2220    0.1020   -4.2740 ha        1 MOL      0.119551
    131 H57       -11.4640    2.2010   -0.2880 ha        1 MOL      0.104939
    132 H58       -11.7600   -0.1910   -3.8780 ha        1 MOL      0.104939
    133 H59       -12.7880    0.6770   -1.8380 ha        1 MOL      0.113250
    134 N12        -6.3180   -1.3810   -1.6600 n         1 MOL     -0.026449
    135 C45        -6.4970   -2.7580   -1.0970 c3        1 MOL      0.009985
    136 C46        -5.7290   -3.0040    0.2110 c         1 MOL      0.379372
    137 O20        -6.2590   -3.6470    1.1440 o         1 MOL     -0.510026
    138 C47        -6.1050   -3.7490   -2.2270 c3        1 MOL     -0.257625
    139 C48        -5.0190   -2.9400   -2.8460 c3        1 MOL      0.236975
    140 C49        -5.5680   -1.5180   -2.8510 c3        1 MOL     -0.284296
    141 H60        -7.5720   -2.8870   -0.9390 h1        1 MOL      0.074522
    142 H61        -5.6240   -4.6870   -1.9630 hc        1 MOL      0.089121
    143 H62        -6.8830   -3.8190   -2.9770 hc        1 MOL      0.089121
    144 H63        -4.1590   -3.0750   -2.1890 hc        1 MOL     -0.019843
    145 H64        -4.6880   -3.2960   -3.8290 hc        1 MOL     -0.019843
    146 H65        -4.8240   -0.7370   -2.9510 h1        1 MOL      0.068363
    147 H66        -6.2590   -1.6230   -3.6820 h1        1 MOL      0.068363
    148 N13        -4.5860   -2.3320    0.4760 n         1 MOL     -0.209223
    149 C50        -4.0360   -2.1200    1.8080 c3        1 MOL     -0.092233
    150 C51        -4.9310   -1.2690    2.7060 c         1 MOL      0.489611
    151 O21        -4.9960   -1.6680    3.8650 o         1 MOL     -0.584977
    152 C52        -2.7370   -1.3560    1.7450 c3        1 MOL     -0.100250
    153 C53        -1.7100   -2.1790    0.9190 c3        1 MOL     -0.110957
    154 C54        -0.3770   -1.5140    0.7240 c         1 MOL      0.831608
    155 O22        -0.1350   -0.4130    1.3230 o         1 MOL     -0.795893
    156 O23         0.5650   -2.0550    0.0750 o         1 MOL     -0.795893
    157 H67        -4.2560   -1.6710   -0.2050 hn        1 MOL      0.238124
    158 H68        -3.8930   -3.0730    2.3250 h1        1 MOL      0.130309
    159 H69        -2.4600   -1.3820    2.8010 hc        1 MOL      0.071782
    160 H70        -2.8590   -0.3460    1.3460 hc        1 MOL      0.071782
    161 H71        -2.1590   -2.3910   -0.0630 hc        1 MOL      0.039471
    162 H72        -1.5390   -3.1240    1.4340 hc        1 MOL      0.039471
    163 N14        -5.7870   -0.3130    2.3170 n         1 MOL     -0.026744
    164 C55        -6.7570    0.3090    3.1180 c3        1 MOL     -0.199054
    165 H73        -6.4590    1.3390    3.3140 h1        1 MOL      0.070433
    166 H74        -7.7170    0.3010    2.6010 h1        1 MOL      0.070433
    167 H75        -6.8480   -0.2280    4.0620 h1        1 MOL      0.070433
    168 H76        -5.7060    0.0910    1.3940 hn        1 MOL      0.057829
    169 Ca1         2.2470    0.0140    0.0250 Ca        1 MOL      1.636155
    170 O24         2.1350    0.1610    2.5990 oh        1 MOL     -0.824109
    171 H77         1.1970    0.1310    2.8200 ho        1 MOL      0.397304
    172 H78         2.5760    0.0350    3.4380 ho        1 MOL      0.397304
    173 O25         4.6310    0.7640    1.1890 oh        1 MOL     -0.824109
    174 H79         4.7580   -0.1910    1.1690 ho        1 MOL      0.397304
    175 H80         5.4540    1.1000    1.5530 ho        1 MOL      0.397304
@<TRIPOS>BOND
     1    1    2 1   
     2    1    4 1   
     3    1    5 1   
     4    1    6 1   
     5    2    3 2   
     6    2    7 1   
     7    7    8 1   
     8    7   15 1   
     9    8    9 1   
    10    8   11 1   
    11    8   16 1   
    12    9   10 2   
    13    9   19 1   
    14   11   12 1   
    15   11   17 1   
    16   11   18 1   
    17   12   13 1   
    18   12   14 1   
    19   19   20 1   
    20   19   24 1   
    21   20   21 1   
    22   20   23 1   
    23   20   25 1   
    24   21   22 2   
    25   21   29 1   
    26   23   26 1   
    27   23   27 1   
    28   23   28 1   
    29   29   30 1   
    30   29   37 1   
    31   30   31 1   
    32   30   33 1   
    33   30   38 1   
    34   31   32 2   
    35   31   41 1   
    36   33   34 1   
    37   33   39 1   
    38   33   40 1   
    39   34   35 1   
    40   34   36 1   
    41   41   42 1   
    42   41   45 1   
    43   42   43 1   
    44   42   46 1   
    45   42   47 1   
    46   43   44 2   
    47   43   48 1   
    48   48   49 1   
    49   48   56 1   
    50   49   50 1   
    51   49   52 1   
    52   49   57 1   
    53   50   51 2   
    54   50   62 1   
    55   52   53 1   
    56   52   58 1   
    57   52   59 1   
    58   53   54 1   
    59   53   55 2   
    60   54   60 1   
    61   54   61 1   
    62   62   63 1   
    63   62   66 1   
    64   63   64 1   
    65   63   67 1   
    66   63   68 1   
    67   64   65 2   
    68   64   69 1   
    69   69   70 1   
    70   69   76 1   
    71   70   71 1   
    72   70   73 1   
    73   70   77 1   
    74   71   72 2   
    75   71   83 1   
    76   73   74 1   
    77   73   75 1   
    78   73   78 1   
    79   74   80 1   
    80   74   81 1   
    81   74   82 1   
    82   75   79 1   
    83   83   84 1   
    84   83   91 1   
    85   84   85 1   
    86   84   87 1   
    87   84   92 1   
    88   85   86 2   
    89   85  102 1   
    90   87   88 1   
    91   87   89 1   
    92   87   93 1   
    93   88   90 1   
    94   88   94 1   
    95   88   95 1   
    96   89   96 1   
    97   89   97 1   
    98   89   98 1   
    99   90   99 1   
   100   90  100 1   
   101   90  101 1   
   102  102  103 1   
   103  102  110 1   
   104  103  104 1   
   105  103  106 1   
   106  103  111 1   
   107  104  105 2   
   108  104  114 1   
   109  106  107 1   
   110  106  112 1   
   111  106  113 1   
   112  107  108 1   
   113  107  109 1   
   114  114  115 1   
   115  114  125 1   
   116  115  116 1   
   117  115  118 1   
   118  115  126 1   
   119  116  117 2   
   120  116  134 1   
   121  118  119 1   
   122  118  127 1   
   123  118  128 1   
   124  119  120 ar  
   125  119  121 ar  
   126  120  122 ar  
   127  120  129 1   
   128  121  123 ar  
   129  121  130 1   
   130  122  124 ar  
   131  122  131 1   
   132  123  124 ar  
   133  123  132 1   
   134  124  133 1   
   135  134  135 1   
   136  134  140 1   
   137  135  136 1   
   138  135  138 1   
   139  135  141 1   
   140  136  137 2   
   141  136  148 1   
   142  138  139 1   
   143  138  142 1   
   144  138  143 1   
   145  139  140 1   
   146  139  144 1   
   147  139  145 1   
   148  140  146 1   
   149  140  147 1   
   150  148  149 1   
   151  148  157 1   
   152  149  150 1   
   153  149  152 1   
   154  149  158 1   
   155  150  151 2   
   156  150  163 1   
   157  152  153 1   
   158  152  159 1   
   159  152  160 1   
   160  153  154 1   
   161  153  161 1   
   162  153  162 1   
   163  154  155 1   
   164  154  156 1   
   165  163  164 1   
   166  163  168 1   
   167  164  165 1   
   168  164  166 1   
   169  164  167 1   
   170  170  171 1   
   171  170  172 1   
   172  173  174 1   
   173  173  175 1   
@<TRIPOS>SUBSTRUCTURE
     1 MOL         1 TEMP              0 ****  ****    0 ROOT
