@<TRIPOS>MOLECULE
MOL
  189   185     1     0     0
SMALL
resp


@<TRIPOS>ATOM
      1 C1         -0.4230    2.8410   -5.1360 c3        1 MOL     -0.139434
      2 C2          0.1040    2.5820   -3.7660 c         1 MOL      0.608050
      3 O1         -0.5070    2.8040   -2.7300 o         1 MOL     -0.572404
      4 H1          0.0250    2.1360   -5.8360 hc        1 MOL      0.036404
      5 H2         -1.5060    2.7160   -5.1380 hc        1 MOL      0.036404
      6 H3         -0.1740    3.8580   -5.4360 hc        1 MOL      0.036404
      7 N1          1.2990    1.9700   -3.7400 n         1 MOL     -0.626994
      8 C3          2.0550    1.7820   -2.4960 c3        1 MOL      0.144916
      9 C4          2.7210    3.1250   -1.9210 c         1 MOL      0.496083
     10 O2          3.4680    3.8340   -2.5890 o         1 MOL     -0.582660
     11 C5          3.0230    0.5270   -2.6240 c3        1 MOL     -0.194548
     12 C6          3.8980    0.2720   -1.3910 c         1 MOL      0.642008
     13 O3          3.3790    0.6190   -0.3270 o         1 MOL     -0.633087
     14 O4          5.1220   -0.0640   -1.4730 o         1 MOL     -0.633087
     15 H4          1.7420    1.8210   -4.6300 hn        1 MOL      0.342048
     16 H5          1.3010    1.5570   -1.7380 h1        1 MOL      0.046399
     17 H6          3.6740    0.7380   -3.4710 hc        1 MOL      0.032202
     18 H7          2.5260   -0.4030   -2.9300 hc        1 MOL      0.032202
     19 N2          2.3870    3.4280   -0.7030 n         1 MOL     -0.221280
     20 C7          2.6260    4.7430   -0.1130 c3        1 MOL      0.109235
     21 C8          3.6190    4.8530    1.0140 c         1 MOL      0.514337
     22 O5          3.8310    5.9460    1.5460 o         1 MOL     -0.538990
     23 C9          1.2770    5.4300    0.2230 c3        1 MOL     -0.155835
     24 C10         1.0930    6.6980   -0.5510 c3        1 MOL      0.154539
     25 C11         0.6910    6.4500   -2.0000 c3        1 MOL     -0.020742
     26 C12        -0.3390    7.4630   -2.4100 c3        1 MOL      0.016530
     27 N3         -0.3560    7.7240   -3.8190 n4        1 MOL     -0.329835
     28 H8          1.5900    2.8910   -0.4080 hn        1 MOL      0.309528
     29 H9          3.1220    5.4030   -0.8270 h1        1 MOL      0.016084
     30 H10         1.2490    5.6770    1.2890 hc        1 MOL      0.076269
     31 H11         0.4370    4.7960   -0.0560 hc        1 MOL      0.076269
     32 H12         2.0020    7.2750   -0.3630 hc        1 MOL     -0.038555
     33 H13         0.3120    7.2910   -0.0620 hc        1 MOL     -0.038555
     34 H14         0.2430    5.4620   -2.0720 hc        1 MOL      0.023184
     35 H15         1.5530    6.4300   -2.6730 hc        1 MOL      0.023184
     36 H16         0.0020    8.3860   -1.9450 hx        1 MOL      0.079335
     37 H17        -1.3230    7.1690   -2.0340 hx        1 MOL      0.079335
     38 H18         0.4920    8.1890   -4.1210 hn        1 MOL      0.319812
     39 H19        -0.4550    6.8850   -4.3840 hn        1 MOL      0.319812
     40 H20        -1.1360    8.3210   -4.0380 hn        1 MOL      0.319812
     41 N4          4.0660    3.6460    1.4400 n         1 MOL     -0.433087
     42 C13         4.7060    3.5020    2.7010 c3        1 MOL      0.058270
     43 C14         5.9220    2.6140    2.6850 c         1 MOL      0.467689
     44 O6          6.3410    1.9830    3.6520 o         1 MOL     -0.507022
     45 C15         3.7570    3.2120    3.8770 c3        1 MOL     -0.187123
     46 C16         2.9090    1.9440    3.7380 c         1 MOL      0.800220
     47 O7          3.0450    1.2680    2.6750 o         1 MOL     -0.715486
     48 O8          2.0410    1.7640    4.6580 o         1 MOL     -0.715486
     49 H21         3.6650    2.8250    1.0100 hn        1 MOL      0.214429
     50 H22         5.1290    4.4990    2.8750 h1        1 MOL      0.059800
     51 H23         3.0330    4.0200    3.9940 hc        1 MOL      0.048550
     52 H24         4.2590    3.0690    4.8380 hc        1 MOL      0.048550
     53 N5          6.4960    2.3810    1.4970 n         1 MOL     -0.342351
     54 C17         7.8110    1.7960    1.2510 c3        1 MOL     -0.135579
     55 C18         7.8650    0.2370    1.4710 c         1 MOL      0.457749
     56 O9          8.9430   -0.3520    1.5020 o         1 MOL     -0.565274
     57 H25         6.0780    2.9090    0.7380 hn        1 MOL      0.253000
     58 H26         8.6620    2.2140    1.7990 h1        1 MOL      0.105499
     59 H27         8.0470    1.9950    0.2130 h1        1 MOL      0.105499
     60 N6          6.7370   -0.5060    1.6380 n         1 MOL     -0.103435
     61 C19         6.6880   -1.8300    2.1410 c3        1 MOL     -0.016850
     62 C20         6.7820   -2.8160    1.0360 c         1 MOL      0.419242
     63 O10         7.1320   -3.9500    1.2480 o         1 MOL     -0.540381
     64 C21         5.5270   -2.0110    3.1080 c3        1 MOL     -0.251007
     65 C22         4.1060   -1.9170    2.4570 c         1 MOL      0.837742
     66 O11         3.0750   -1.6450    3.1540 o         1 MOL     -0.787594
     67 O12         4.0100   -2.1440    1.2170 o         1 MOL     -0.787594
     68 H28         5.8670    0.0160    1.6590 hn        1 MOL      0.166044
     69 H29         7.5720   -2.0340    2.7390 h1        1 MOL      0.112720
     70 H30         5.6020   -1.2360    3.8770 hc        1 MOL      0.073791
     71 H31         5.5810   -3.0080    3.5540 hc        1 MOL      0.073791
     72 N7          6.6700   -2.4210   -0.2510 n         1 MOL     -0.149979
     73 C23         6.6960   -3.2470   -1.4560 c3        1 MOL     -0.246560
     74 C24         5.4250   -4.0960   -1.8760 c         1 MOL      0.541575
     75 O13         5.4680   -5.1170   -2.5500 o         1 MOL     -0.568178
     76 H32         6.4610   -1.4330   -0.3050 hn        1 MOL      0.173932
     77 H33         7.4360   -4.0300   -1.3300 h1        1 MOL      0.117798
     78 H34         7.0200   -2.6350   -2.2940 h1        1 MOL      0.117798
     79 N8          4.2540   -3.7270   -1.3120 n         1 MOL     -0.264675
     80 C25         2.8780   -4.3020   -1.4150 c3        1 MOL     -0.103949
     81 C26         1.8090   -3.2780   -1.4340 c         1 MOL      0.635609
     82 O14         1.8550   -2.3350   -0.6540 o         1 MOL     -0.614618
     83 C27         2.6290   -5.4090   -0.2920 c3        1 MOL      0.575476
     84 C28         3.2720   -6.7410   -0.5240 c3        1 MOL     -0.322400
     85 O15         3.0900   -4.9780    0.9950 oh        1 MOL     -0.683864
     86 H35         4.4310   -2.8860   -0.7840 hn        1 MOL      0.163127
     87 H36         2.9230   -4.8240   -2.3700 h1        1 MOL      0.054061
     88 H37         1.5460   -5.4670   -0.4240 h1        1 MOL     -0.062291
     89 H38         3.7230   -4.2660    0.8890 ho        1 MOL      0.450220
     90 H39         3.0240   -6.9640   -1.5590 hc        1 MOL      0.073179
     91 H40         4.3510   -6.6940   -0.3510 hc        1 MOL      0.073179
     92 H41         2.7570   -7.5530   -0.0180 hc        1 MOL      0.073179
     93 N9          0.6870   -3.6120   -2.1460 n         1 MOL     -0.539644
     94 C29        -0.5120   -2.8240   -2.2230 c3        1 MOL      0.066321
     95 C30        -1.6390   -3.4920   -1.4620 c         1 MOL      0.498563
     96 O16        -1.9610   -4.6460   -1.6470 o         1 MOL     -0.556949
     97 C31        -0.8330   -2.6000   -3.7360 c3        1 MOL      0.004569
     98 C32         0.1500   -1.6090   -4.2870 c3        1 MOL     -0.074880
     99 C33        -2.2430   -2.0590   -3.8830 c3        1 MOL     -0.096052
    100 C34         0.2330   -1.6250   -5.8320 c3        1 MOL     -0.204788
    101 H42         0.6670   -4.4870   -2.6510 hn        1 MOL      0.296512
    102 H43        -0.3610   -1.8410   -1.7770 h1        1 MOL      0.059091
    103 H44        -0.7600   -3.5460   -4.2770 hc        1 MOL      0.051526
    104 H45         1.1630   -1.6980   -3.8820 hc        1 MOL      0.079122
    105 H46        -0.1570   -0.6200   -3.9210 hc        1 MOL      0.079122
    106 H47        -3.0850   -2.7250   -3.7100 hc        1 MOL      0.006909
    107 H48        -2.4100   -1.2350   -3.1830 hc        1 MOL      0.006909
    108 H49        -2.3760   -1.6900   -4.8980 hc        1 MOL      0.006909
    109 H50         1.1020   -1.0870   -6.1970 hc        1 MOL      0.055508
    110 H51         0.2960   -2.6650   -6.1630 hc        1 MOL      0.055508
    111 H52        -0.6310   -1.1130   -6.2510 hc        1 MOL      0.055508
    112 N10        -2.3240   -2.7160   -0.6490 n         1 MOL     -0.199422
    113 C35        -3.5520   -2.9740    0.0620 c3        1 MOL     -0.136425
    114 C36        -4.8790   -2.5210   -0.5750 c         1 MOL      0.581152
    115 O17        -4.9600   -1.6580   -1.4570 o         1 MOL     -0.466489
    116 C37        -3.5430   -2.3200    1.4650 c3        1 MOL      0.347355
    117 C38        -2.4540   -2.9140    2.3600 c3        1 MOL     -0.204216
    118 O18        -3.3670   -0.9980    1.3810 oh        1 MOL     -0.590951
    119 H53        -1.9150   -1.8450   -0.3220 hn        1 MOL      0.352028
    120 H54        -3.6780   -4.0520    0.1640 h1        1 MOL      0.043563
    121 H55        -4.5150   -2.6230    1.8390 h1        1 MOL     -0.040236
    122 H56        -2.4310   -0.8230    1.2100 ho        1 MOL      0.423579
    123 H57        -2.7940   -3.9040    2.6460 hc        1 MOL      0.049334
    124 H58        -1.4620   -2.9190    1.9060 hc        1 MOL      0.049334
    125 H59        -2.5850   -2.2570    3.2300 hc        1 MOL      0.049334
    126 N11        -5.9680   -2.9420   -0.0380 n         1 MOL     -0.461177
    127 C39        -7.3530   -2.4750   -0.3040 c3        1 MOL     -0.031345
    128 C40        -7.5120   -0.9720   -0.2300 c         1 MOL      0.514568
    129 O19        -7.9390   -0.4580   -1.2560 o         1 MOL     -0.524542
    130 C41        -8.4110   -3.1430    0.4990 c3        1 MOL      0.178607
    131 C42        -8.5610   -4.6220    0.2630 c3        1 MOL     -0.239777
    132 O20        -7.9660   -3.0070    1.8400 oh        1 MOL     -0.641137
    133 H60        -5.9200   -3.5470    0.7750 hn        1 MOL      0.310577
    134 H61        -7.6460   -2.7140   -1.3260 h1        1 MOL      0.126482
    135 H62        -9.3810   -2.6740    0.3560 h1        1 MOL      0.060886
    136 H63        -8.7020   -3.2660    2.3910 ho        1 MOL      0.408528
    137 H64        -7.6780   -5.2330    0.4600 hc        1 MOL      0.079835
    138 H65        -9.3390   -5.0420    0.9020 hc        1 MOL      0.079835
    139 H66        -8.8610   -4.7390   -0.7740 hc        1 MOL      0.079835
    140 N12        -7.0200   -0.3230    0.8170 n         1 MOL     -0.545814
    141 C43        -7.0890    1.1120    1.0250 c3        1 MOL     -0.034696
    142 C44        -6.0260    1.8870    0.2350 c         1 MOL      0.316209
    143 O21        -6.0870    3.1040    0.1450 o         1 MOL     -0.532375
    144 C45        -6.9790    1.4370    2.5350 c3        1 MOL     -0.064310
    145 C46        -7.9770    0.8580    3.5420 c3        1 MOL      0.093986
    146 C47        -7.5260    1.4340    4.8490 c3        1 MOL     -0.184501
    147 C48        -8.6320    1.0900    5.9760 c3        1 MOL      0.035120
    148 N13        -9.7550    1.9990    5.9530 n4        1 MOL     -0.513952
    149 H67        -6.5260   -0.8790    1.5000 hn        1 MOL      0.394659
    150 H68        -8.0620    1.4870    0.7210 h1        1 MOL      0.139673
    151 H69        -7.0910    2.5180    2.5920 hc        1 MOL      0.031849
    152 H70        -5.9770    1.1650    2.8480 hc        1 MOL      0.031849
    153 H71        -7.9850   -0.2290    3.6380 hc        1 MOL      0.008777
    154 H72        -8.8930    1.3290    3.1790 hc        1 MOL      0.008777
    155 H73        -7.4830    2.5220    4.8760 hc        1 MOL      0.103943
    156 H74        -6.6180    0.8790    5.1050 hc        1 MOL      0.103943
    157 H75        -8.2370    1.1710    6.9880 hx        1 MOL      0.090196
    158 H76        -8.8820    0.0410    5.7880 hx        1 MOL      0.090196
    159 H77       -10.5570    1.5790    6.4090 hn        1 MOL      0.352353
    160 H78        -9.5790    2.7940    6.5480 hn        1 MOL      0.352353
    161 H79        -9.9410    2.3880    5.0400 hn        1 MOL      0.352353
    162 N14        -5.0450    1.2010   -0.3060 n         1 MOL      0.232406
    163 C49        -4.1360    1.8710   -1.1610 c3        1 MOL     -0.225819
    164 C50        -4.6730    1.9510   -2.5650 c         1 MOL      0.496688
    165 O22        -4.6380    3.0290   -3.1510 o         1 MOL     -0.568978
    166 C51        -2.7420    1.1250   -1.1510 c3        1 MOL      0.339736
    167 C52        -1.8960    1.5680    0.1100 c3        1 MOL     -0.194469
    168 C53        -0.7180    0.7020    0.2810 c         1 MOL      0.984965
    169 O23        -0.8830   -0.5170    0.3130 o         1 MOL     -0.886441
    170 O24         0.3870    1.2700    0.3680 o         1 MOL     -0.886441
    171 H80        -4.9940    0.2030   -0.1520 hn        1 MOL     -0.033821
    172 H81        -3.9040    2.8920   -0.8700 h1        1 MOL      0.114699
    173 H82        -2.2540    1.3230   -2.1180 hc        1 MOL     -0.076268
    174 H83        -2.9970    0.0590   -1.1400 hc        1 MOL     -0.076268
    175 H84        -2.5670    1.3660    0.9470 hc        1 MOL     -0.020007
    176 H85        -1.6540    2.6310    0.0130 hc        1 MOL     -0.020007
    177 N15        -5.3440    0.9310   -3.1030 n         1 MOL     -0.187644
    178 C54        -6.1890    0.9700   -4.2810 c3        1 MOL     -0.271487
    179 H86        -5.9000    0.1700   -4.9630 h1        1 MOL      0.108178
    180 H87        -7.2300    0.8380   -3.9860 h1        1 MOL      0.108178
    181 H88        -6.0720    1.9320   -4.7810 h1        1 MOL      0.108178
    182 H89        -5.4490    0.1200   -2.5100 hn        1 MOL      0.216086
    183 Ca1         1.7650   -0.6530    1.2920 Ca        1 MOL      1.765449
    184 O25         0.3500   -0.1470    3.5160 oh        1 MOL     -0.891416
    185 H90        -0.3760   -0.4080    4.0770 ho        1 MOL      0.416285
    186 H91         1.0070    0.2130    4.1070 ho        1 MOL      0.416285
    187 O26         0.8740   -3.4830    1.8790 oh        1 MOL     -0.891416
    188 H92         1.0130   -3.9410    2.7140 ho        1 MOL      0.416285
    189 H93         1.6040   -3.7510    1.3340 ho        1 MOL      0.416285
@<TRIPOS>BOND
     1    1    2 1   
     2    1    4 1   
     3    1    5 1   
     4    1    6 1   
     5    2    3 2   
     6    2    7 1   
     7    7    8 1   
     8    7   15 1   
     9    8    9 1   
    10    8   11 1   
    11    8   16 1   
    12    9   10 2   
    13    9   19 1   
    14   11   12 1   
    15   11   17 1   
    16   11   18 1   
    17   12   13 1   
    18   12   14 1   
    19   19   20 1   
    20   19   28 1   
    21   20   21 1   
    22   20   23 1   
    23   20   29 1   
    24   21   22 2   
    25   21   41 1   
    26   23   24 1   
    27   23   30 1   
    28   23   31 1   
    29   24   25 1   
    30   24   32 1   
    31   24   33 1   
    32   25   26 1   
    33   25   34 1   
    34   25   35 1   
    35   26   27 1   
    36   26   36 1   
    37   26   37 1   
    38   27   38 1   
    39   27   39 1   
    40   27   40 1   
    41   41   42 1   
    42   41   49 1   
    43   42   43 1   
    44   42   45 1   
    45   42   50 1   
    46   43   44 2   
    47   43   53 1   
    48   45   46 1   
    49   45   51 1   
    50   45   52 1   
    51   46   47 1   
    52   46   48 1   
    53   53   54 1   
    54   53   57 1   
    55   54   55 1   
    56   54   58 1   
    57   54   59 1   
    58   55   56 2   
    59   55   60 1   
    60   60   61 1   
    61   60   68 1   
    62   61   62 1   
    63   61   64 1   
    64   61   69 1   
    65   62   63 2   
    66   62   72 1   
    67   64   65 1   
    68   64   70 1   
    69   64   71 1   
    70   65   66 1   
    71   65   67 1   
    72   72   73 1   
    73   72   76 1   
    74   73   74 1   
    75   73   77 1   
    76   73   78 1   
    77   74   75 2   
    78   74   79 1   
    79   79   80 1   
    80   79   86 1   
    81   80   81 1   
    82   80   83 1   
    83   80   87 1   
    84   81   82 2   
    85   81   93 1   
    86   83   84 1   
    87   83   85 1   
    88   83   88 1   
    89   84   90 1   
    90   84   91 1   
    91   84   92 1   
    92   85   89 1   
    93   93   94 1   
    94   93  101 1   
    95   94   95 1   
    96   94   97 1   
    97   94  102 1   
    98   95   96 2   
    99   95  112 1   
   100   97   98 1   
   101   97   99 1   
   102   97  103 1   
   103   98  100 1   
   104   98  104 1   
   105   98  105 1   
   106   99  106 1   
   107   99  107 1   
   108   99  108 1   
   109  100  109 1   
   110  100  110 1   
   111  100  111 1   
   112  112  113 1   
   113  112  119 1   
   114  113  114 1   
   115  113  116 1   
   116  113  120 1   
   117  114  115 2   
   118  114  126 1   
   119  116  117 1   
   120  116  118 1   
   121  116  121 1   
   122  117  123 1   
   123  117  124 1   
   124  117  125 1   
   125  118  122 1   
   126  126  127 1   
   127  126  133 1   
   128  127  128 1   
   129  127  130 1   
   130  127  134 1   
   131  128  129 2   
   132  128  140 1   
   133  130  131 1   
   134  130  132 1   
   135  130  135 1   
   136  131  137 1   
   137  131  138 1   
   138  131  139 1   
   139  132  136 1   
   140  140  141 1   
   141  140  149 1   
   142  141  142 1   
   143  141  144 1   
   144  141  150 1   
   145  142  143 2   
   146  142  162 1   
   147  144  145 1   
   148  144  151 1   
   149  144  152 1   
   150  145  146 1   
   151  145  153 1   
   152  145  154 1   
   153  146  147 1   
   154  146  155 1   
   155  146  156 1   
   156  147  148 1   
   157  147  157 1   
   158  147  158 1   
   159  148  159 1   
   160  148  160 1   
   161  148  161 1   
   162  162  163 1   
   163  162  171 1   
   164  163  164 1   
   165  163  166 1   
   166  163  172 1   
   167  164  165 2   
   168  164  177 1   
   169  166  167 1   
   170  166  173 1   
   171  166  174 1   
   172  167  168 1   
   173  167  175 1   
   174  167  176 1   
   175  168  169 1   
   176  168  170 1   
   177  177  178 1   
   178  177  182 1   
   179  178  179 1   
   180  178  180 1   
   181  178  181 1   
   182  184  185 1   
   183  184  186 1   
   184  187  188 1   
   185  187  189 1   
@<TRIPOS>SUBSTRUCTURE
     1 MOL         1 TEMP              0 ****  ****    0 ROOT
