@<TRIPOS>MOLECULE
MOL
  179   176     1     0     0
SMALL
resp


@<TRIPOS>ATOM
      1 C1          1.3240    4.8380    5.0120 c3        1 MOL     -0.341280
      2 C2          0.9080    4.1580    3.6460 c         1 MOL      0.626416
      3 O1          1.8340    4.0170    2.8390 o         1 MOL     -0.561879
      4 H1          0.8940    4.2770    5.8420 hc        1 MOL      0.088135
      5 H2          2.4100    4.8420    5.1010 hc        1 MOL      0.088135
      6 H3          0.9520    5.8630    5.0360 hc        1 MOL      0.088135
      7 N1         -0.3560    3.9070    3.3160 n         1 MOL     -0.628939
      8 C3         -0.8150    3.3480    1.9910 c3        1 MOL      0.144260
      9 C4         -1.2570    4.5140    1.0810 c         1 MOL      0.506055
     10 O2         -2.3850    4.9160    1.1130 o         1 MOL     -0.518961
     11 C5         -1.7840    2.1740    2.1360 c3        1 MOL     -0.118979
     12 C6         -1.9980    1.5510    0.7430 c         1 MOL      0.791821
     13 O3         -1.2950    1.9740   -0.2380 o         1 MOL     -0.827958
     14 O4         -2.8250    0.5900    0.4910 o         1 MOL     -0.827958
     15 H4         -0.9800    3.9630    4.1030 hn        1 MOL      0.330565
     16 H5          0.0660    2.9490    1.4880 h1        1 MOL      0.080001
     17 H6         -2.7230    2.5560    2.5220 hc        1 MOL      0.044828
     18 H7         -1.4400    1.5310    2.9390 hc        1 MOL      0.044828
     19 N2         -0.3880    5.0440    0.2030 n         1 MOL     -0.325086
     20 C7         -0.7020    6.2470   -0.5860 c3        1 MOL     -0.030308
     21 C8         -1.6730    6.0390   -1.7420 c         1 MOL      0.443447
     22 O5         -2.2190    7.0670   -2.1820 o         1 MOL     -0.545760
     23 C9          0.6340    6.8510   -1.0700 c3        1 MOL     -0.209620
     24 C10         1.5820    7.2740    0.1220 c3        1 MOL      0.088273
     25 C11         0.8900    8.1660    1.1860 c3        1 MOL     -0.195841
     26 C12         2.0090    8.8660    1.9000 c3        1 MOL      0.134457
     27 N3          1.5820    9.2100    3.1820 n4        1 MOL     -0.290036
     28 H8          0.5820    4.7570    0.1200 hn        1 MOL      0.272912
     29 H9         -1.1600    6.9610    0.1030 h1        1 MOL      0.085372
     30 H10         0.4230    7.7640   -1.6190 hc        1 MOL      0.094605
     31 H11         1.1020    6.1330   -1.7390 hc        1 MOL      0.094605
     32 H12         2.4520    7.7360   -0.3500 hc        1 MOL      0.015638
     33 H13         1.9650    6.3910    0.6330 hc        1 MOL      0.015638
     34 H14         0.2710    7.5380    1.8290 hc        1 MOL      0.075107
     35 H15         0.2710    8.9680    0.7860 hc        1 MOL      0.075107
     36 H16         2.2730    9.8050    1.4050 hx        1 MOL      0.066035
     37 H17         2.9700    8.3450    1.9200 hx        1 MOL      0.066035
     38 H18         1.5910    8.4220    3.8150 hn        1 MOL      0.301206
     39 H19         2.1160    9.8790    3.7110 hn        1 MOL      0.301206
     40 H20         0.6300    9.5530    3.0740 hn        1 MOL      0.301206
     41 N4         -1.9800    4.7990   -2.0850 n         1 MOL     -0.373009
     42 C13        -3.1440    4.4430   -3.0140 c3        1 MOL      0.262850
     43 C14        -4.3460    4.0480   -2.0700 c         1 MOL      0.412945
     44 O6         -5.4440    4.2820   -2.4890 o         1 MOL     -0.554497
     45 C15        -2.8920    3.3350   -4.0780 c3        1 MOL     -0.361396
     46 C16        -2.4430    2.0780   -3.3980 c         1 MOL      0.856312
     47 O7         -1.2430    1.7000   -3.4870 o         1 MOL     -0.773081
     48 O8         -3.1920    1.4520   -2.6560 o         1 MOL     -0.773081
     49 H21        -1.4000    4.0660   -1.7220 hn        1 MOL      0.298568
     50 H22        -3.4800    5.3580   -3.5010 h1        1 MOL      0.050115
     51 H23        -2.0650    3.7170   -4.6770 hc        1 MOL      0.085450
     52 H24        -3.7810    3.1110   -4.6650 hc        1 MOL      0.085450
     53 N5         -4.1090    3.3970   -0.8960 n         1 MOL     -0.056327
     54 C17        -4.9700    3.0750    0.2140 c3        1 MOL     -0.071470
     55 C18        -5.8720    1.7920    0.1150 c         1 MOL      0.559818
     56 O9         -6.7860    1.7540    0.9500 o         1 MOL     -0.607777
     57 H25        -3.1210    3.2610   -0.7690 hn        1 MOL      0.047317
     58 H26        -5.6570    3.9080    0.3500 h1        1 MOL      0.054991
     59 H27        -4.2470    3.1650    1.0320 h1        1 MOL      0.054991
     60 N6         -5.6460    0.8720   -0.7400 n         1 MOL     -0.316720
     61 C19        -6.4700   -0.2790   -1.0020 c3        1 MOL      0.100358
     62 C20        -6.6340   -1.2510    0.1860 c         1 MOL      0.325740
     63 O10        -7.5330   -2.0590    0.0730 o         1 MOL     -0.521639
     64 C21        -5.9360   -0.9140   -2.3270 c3        1 MOL     -0.325527
     65 C22        -4.8640   -1.9560   -2.0420 c         1 MOL      0.704252
     66 N7         -4.9910   -3.0870   -2.7210 n         1 MOL     -0.806547
     67 O11        -3.9390   -1.7450   -1.2480 o         1 MOL     -0.753242
     68 H28        -4.8870    1.0480   -1.3780 hn        1 MOL      0.219197
     69 H29        -7.4850    0.0500   -1.2140 h1        1 MOL      0.094069
     70 H30        -5.6700   -0.1940   -3.1000 hc        1 MOL      0.121414
     71 H31        -6.7850   -1.4350   -2.7550 hc        1 MOL      0.121414
     72 H32        -5.8970   -3.2940   -3.1180 hn        1 MOL      0.380038
     73 H33        -4.2570   -3.7460   -2.9260 hn        1 MOL      0.380038
     74 N8         -5.8270   -1.1610    1.2420 n         1 MOL      0.040747
     75 C23        -5.8690   -1.9300    2.4430 c3        1 MOL     -0.421268
     76 C24        -4.6400   -2.8660    2.5910 c         1 MOL      0.614661
     77 O12        -4.5960   -3.7220    3.5430 o         1 MOL     -0.532902
     78 H34        -5.2210   -0.3560    1.2360 hn        1 MOL      0.171075
     79 H35        -6.7670   -2.5350    2.3460 h1        1 MOL      0.163943
     80 H36        -6.0140   -1.3340    3.3390 h1        1 MOL      0.163943
     81 N9         -3.7120   -2.8170    1.5590 n         1 MOL     -0.747761
     82 C25        -2.4360   -3.6330    1.5500 c3        1 MOL      0.360547
     83 C26        -1.1750   -2.8170    1.2680 c         1 MOL      0.478236
     84 O13        -1.3270   -1.8520    0.4980 o         1 MOL     -0.686501
     85 C27        -2.5550   -4.7290    0.4130 c3        1 MOL     -0.102052
     86 C28        -3.7870   -5.6250    0.5780 ca        1 MOL     -0.058798
     87 C29        -5.1000   -5.1130    0.4350 ca        1 MOL     -0.107271
     88 C30        -3.6340   -6.8970    1.2490 ca        1 MOL     -0.107271
     89 C31        -6.2010   -5.9270    0.6580 ca        1 MOL     -0.291994
     90 C32        -4.8220   -7.6780    1.6340 ca        1 MOL     -0.291994
     91 C33        -6.0870   -7.1760    1.3180 ca        1 MOL      0.371244
     92 O14        -7.2470   -7.7920    1.6830 oh        1 MOL     -0.481392
     93 H37        -3.9600   -2.4840    0.6440 hn        1 MOL      0.748321
     94 H38        -2.2780   -4.0820    2.5360 h1        1 MOL      0.013537
     95 H39        -1.7150   -5.4230    0.4220 hc        1 MOL      0.034666
     96 H40        -2.6460   -4.4130   -0.6330 hc        1 MOL      0.034666
     97 H41        -5.2500   -4.1190    0.0500 ha        1 MOL      0.115529
     98 H42        -2.6980   -7.3620    1.5320 ha        1 MOL      0.115529
     99 H43        -7.1950   -5.5070    0.6640 ha        1 MOL      0.142151
    100 H44        -4.7170   -8.6660    2.0620 ha        1 MOL      0.142151
    101 H45        -7.0520   -8.6130    2.1520 ho        1 MOL      0.359567
    102 N10         0.0470   -3.0990    1.8030 n         1 MOL     -0.594833
    103 C34         1.3210   -2.4060    1.4840 c3        1 MOL      0.217718
    104 C35         2.2700   -3.4820    1.1420 c         1 MOL      0.479566
    105 O15         2.2050   -4.6430    1.6190 o         1 MOL     -0.554013
    106 C36         1.8010   -1.5660    2.6380 c3        1 MOL      0.031545
    107 C37         1.0580   -0.2650    2.6410 c3        1 MOL      0.090368
    108 C38         3.3000   -1.3790    2.7890 c3        1 MOL     -0.088368
    109 C39         1.2030    0.4860    3.9570 c3        1 MOL     -0.312763
    110 H46         0.0930   -3.8390    2.4850 hn        1 MOL      0.308188
    111 H47         1.1690   -1.8320    0.5720 h1        1 MOL     -0.004993
    112 H48         1.5210   -2.0840    3.5530 hc        1 MOL      0.011664
    113 H49        -0.0040   -0.5300    2.5630 hc        1 MOL      0.039012
    114 H50         1.2240    0.2630    1.6990 hc        1 MOL      0.039012
    115 H51         3.7780   -2.3480    2.7780 hc        1 MOL      0.008191
    116 H52         3.7480   -0.8190    1.9620 hc        1 MOL      0.008191
    117 H53         3.5040   -0.8850    3.7390 hc        1 MOL      0.008191
    118 H54         2.1540    1.0210    4.0040 hc        1 MOL      0.083594
    119 H55         0.4690    1.2880    3.9990 hc        1 MOL      0.083594
    120 H56         1.0450   -0.1270    4.8520 hc        1 MOL      0.083594
    121 N11         3.1020   -3.1310    0.1540 n         1 MOL     -0.140400
    122 C40         4.1870   -4.0030   -0.4160 c3        1 MOL     -0.106671
    123 C41         5.5240   -3.6430    0.0990 c         1 MOL      0.570012
    124 O16         5.6830   -2.6170    0.7600 o         1 MOL     -0.435742
    125 C42         4.1220   -3.8690   -1.9640 c3        1 MOL     -0.043858
    126 O17         4.6740   -2.6270   -2.3410 oh        1 MOL     -0.468739
    127 H57         3.0270   -2.2070   -0.2570 hn        1 MOL      0.053044
    128 H58         3.9620   -5.0600   -0.2650 h1        1 MOL      0.094860
    129 H59         3.0950   -3.7420   -2.3030 h1        1 MOL      0.074783
    130 H60         4.6340   -4.6860   -2.4730 h1        1 MOL      0.074783
    131 H61         4.3190   -2.5040   -3.2150 ho        1 MOL      0.383313
    132 N12         6.5350   -4.3840   -0.2200 n         1 MOL     -0.546098
    133 C43         7.9450   -4.0460    0.2190 c3        1 MOL      0.220094
    134 C44         8.4180   -2.6320   -0.3010 c         1 MOL      0.450848
    135 O18         9.1650   -1.9240    0.3640 o         1 MOL     -0.507479
    136 C45         8.8600   -5.0970   -0.3240 c3        1 MOL     -0.295849
    137 H62         6.4900   -5.0730   -0.9540 hn        1 MOL      0.320921
    138 H63         7.9500   -3.9870    1.3040 h1        1 MOL      0.072893
    139 H64         9.9020   -4.8140   -0.1730 hc        1 MOL      0.087121
    140 H65         8.7000   -6.0980    0.0900 hc        1 MOL      0.087121
    141 H66         8.6750   -5.1610   -1.3880 hc        1 MOL      0.087121
    142 N13         7.9760   -2.2200   -1.5400 n         1 MOL     -0.490705
    143 C46         8.2860   -0.8900   -2.1130 c3        1 MOL      0.348241
    144 C47         7.4780    0.2310   -1.4250 c         1 MOL      0.216005
    145 O19         7.9820    1.3020   -1.1740 o         1 MOL     -0.478778
    146 C48         8.0390   -0.9070   -3.6380 c3        1 MOL     -0.335866
    147 H67         7.3780   -2.8420   -2.0630 hn        1 MOL      0.253562
    148 H68         9.3310   -0.5930   -2.0250 h1        1 MOL      0.051600
    149 H69         7.1910   -1.5690   -3.8120 hc        1 MOL      0.083292
    150 H70         7.6560    0.0530   -3.9750 hc        1 MOL      0.083292
    151 H71         9.0020   -1.1740   -4.0730 hc        1 MOL      0.083292
    152 N14         6.1920   -0.1040   -1.1220 n         1 MOL      0.021864
    153 C49         5.2720    0.8620   -0.5840 c3        1 MOL     -0.113139
    154 C50         5.6370    1.1150    0.9220 c         1 MOL      0.387137
    155 O20         5.4910    2.1350    1.5300 o         1 MOL     -0.548495
    156 C51         3.8570    0.3120   -0.8000 c3        1 MOL      0.255398
    157 C52         3.3380    0.2400   -2.2640 c3        1 MOL     -0.410630
    158 C53         2.0240   -0.5290   -2.4480 c         1 MOL      0.847046
    159 O21         0.9450   -0.1640   -1.8700 o         1 MOL     -0.716355
    160 O22         1.9520   -1.4740   -3.2730 o         1 MOL     -0.716355
    161 H72         5.7650   -0.9800   -1.3820 hn        1 MOL      0.082567
    162 H73         5.2570    1.7940   -1.1450 h1        1 MOL      0.092928
    163 H74         3.1480    0.9150   -0.2290 hc        1 MOL     -0.021161
    164 H75         3.7010   -0.6760   -0.3800 hc        1 MOL     -0.021161
    165 H76         4.1350   -0.1030   -2.9170 hc        1 MOL      0.077168
    166 H77         3.1440    1.3050   -2.4040 hc        1 MOL      0.077168
    167 N15         6.2700    0.1380    1.5580 n         1 MOL      0.074263
    168 C54         6.9040    0.2470    2.9160 c3        1 MOL     -0.270571
    169 H78         7.1010   -0.7510    3.3060 h1        1 MOL      0.100958
    170 H79         7.8420    0.7970    2.8360 h1        1 MOL      0.100958
    171 H80         6.2300    0.7730    3.5920 h1        1 MOL      0.100958
    172 H81         6.3520   -0.7340    1.0630 hn        1 MOL      0.030177
    173 Ca1        -1.6230   -0.3570   -1.7460 Ca        1 MOL      1.843820
    174 O23        -0.4290   -2.6820   -2.5320 oh        1 MOL     -0.851330
    175 H82         0.4050   -2.4700   -2.9520 ho        1 MOL      0.410225
    176 H83        -0.2690   -3.5140   -2.0880 ho        1 MOL      0.410225
    177 O24        -2.5600   -1.2920   -4.0370 oh        1 MOL     -0.851330
    178 H84        -3.3980   -1.3070   -4.4840 ho        1 MOL      0.410225
    179 H85        -2.0330   -1.9480   -4.5000 ho        1 MOL      0.410225
@<TRIPOS>BOND
     1    1    2 1   
     2    1    4 1   
     3    1    5 1   
     4    1    6 1   
     5    2    3 2   
     6    2    7 1   
     7    7    8 1   
     8    7   15 1   
     9    8    9 1   
    10    8   11 1   
    11    8   16 1   
    12    9   10 2   
    13    9   19 1   
    14   11   12 1   
    15   11   17 1   
    16   11   18 1   
    17   12   13 1   
    18   12   14 1   
    19   19   20 1   
    20   19   28 1   
    21   20   21 1   
    22   20   23 1   
    23   20   29 1   
    24   21   22 2   
    25   21   41 1   
    26   23   24 1   
    27   23   30 1   
    28   23   31 1   
    29   24   25 1   
    30   24   32 1   
    31   24   33 1   
    32   25   26 1   
    33   25   34 1   
    34   25   35 1   
    35   26   27 1   
    36   26   36 1   
    37   26   37 1   
    38   27   38 1   
    39   27   39 1   
    40   27   40 1   
    41   41   42 1   
    42   41   49 1   
    43   42   43 1   
    44   42   45 1   
    45   42   50 1   
    46   43   44 2   
    47   43   53 1   
    48   45   46 1   
    49   45   51 1   
    50   45   52 1   
    51   46   47 1   
    52   46   48 1   
    53   53   54 1   
    54   53   57 1   
    55   54   55 1   
    56   54   58 1   
    57   54   59 1   
    58   55   56 2   
    59   55   60 1   
    60   60   61 1   
    61   60   68 1   
    62   61   62 1   
    63   61   64 1   
    64   61   69 1   
    65   62   63 2   
    66   62   74 1   
    67   64   65 1   
    68   64   70 1   
    69   64   71 1   
    70   65   66 1   
    71   65   67 2   
    72   66   72 1   
    73   66   73 1   
    74   74   75 1   
    75   74   78 1   
    76   75   76 1   
    77   75   79 1   
    78   75   80 1   
    79   76   77 2   
    80   76   81 1   
    81   81   82 1   
    82   81   93 1   
    83   82   83 1   
    84   82   85 1   
    85   82   94 1   
    86   83   84 2   
    87   83  102 1   
    88   85   86 1   
    89   85   95 1   
    90   85   96 1   
    91   86   87 ar  
    92   86   88 ar  
    93   87   89 ar  
    94   87   97 1   
    95   88   90 ar  
    96   88   98 1   
    97   89   91 ar  
    98   89   99 1   
    99   90   91 ar  
   100   90  100 1   
   101   91   92 1   
   102   92  101 1   
   103  102  103 1   
   104  102  110 1   
   105  103  104 1   
   106  103  106 1   
   107  103  111 1   
   108  104  105 2   
   109  104  121 1   
   110  106  107 1   
   111  106  108 1   
   112  106  112 1   
   113  107  109 1   
   114  107  113 1   
   115  107  114 1   
   116  108  115 1   
   117  108  116 1   
   118  108  117 1   
   119  109  118 1   
   120  109  119 1   
   121  109  120 1   
   122  121  122 1   
   123  121  127 1   
   124  122  123 1   
   125  122  125 1   
   126  122  128 1   
   127  123  124 2   
   128  123  132 1   
   129  125  126 1   
   130  125  129 1   
   131  125  130 1   
   132  126  131 1   
   133  132  133 1   
   134  132  137 1   
   135  133  134 1   
   136  133  136 1   
   137  133  138 1   
   138  134  135 2   
   139  134  142 1   
   140  136  139 1   
   141  136  140 1   
   142  136  141 1   
   143  142  143 1   
   144  142  147 1   
   145  143  144 1   
   146  143  146 1   
   147  143  148 1   
   148  144  145 2   
   149  144  152 1   
   150  146  149 1   
   151  146  150 1   
   152  146  151 1   
   153  152  153 1   
   154  152  161 1   
   155  153  154 1   
   156  153  156 1   
   157  153  162 1   
   158  154  155 2   
   159  154  167 1   
   160  156  157 1   
   161  156  163 1   
   162  156  164 1   
   163  157  158 1   
   164  157  165 1   
   165  157  166 1   
   166  158  159 1   
   167  158  160 1   
   168  167  168 1   
   169  167  172 1   
   170  168  169 1   
   171  168  170 1   
   172  168  171 1   
   173  174  175 1   
   174  174  176 1   
   175  177  178 1   
   176  177  179 1   
@<TRIPOS>SUBSTRUCTURE
     1 MOL         1 TEMP              0 ****  ****    0 ROOT
