@<TRIPOS>MOLECULE
MOL
  189   185     1     0     0
SMALL
resp


@<TRIPOS>ATOM
      1 C1          0.2840    2.4910   -5.6250 c3        1 MOL     -0.441877
      2 C2          0.6630    2.0140   -4.1470 c         1 MOL      0.711432
      3 O1         -0.1130    2.1760   -3.2670 o         1 MOL     -0.606602
      4 H1         -0.7230    2.1520   -5.8690 hc        1 MOL      0.113006
      5 H2          0.3230    3.5790   -5.6770 hc        1 MOL      0.113006
      6 H3          0.9930    2.0670   -6.3370 hc        1 MOL      0.113006
      7 N1          1.8560    1.5890   -3.8430 n         1 MOL     -0.552255
      8 C3          2.4910    1.4700   -2.6060 c3        1 MOL      0.257219
      9 C4          2.8410    2.8350   -2.0720 c         1 MOL      0.321555
     10 O2          3.8920    3.3820   -2.4970 o         1 MOL     -0.539487
     11 C5          3.6700    0.5110   -2.7300 c3        1 MOL     -0.130124
     12 C6          4.1930    0.0840   -1.3950 c         1 MOL      0.771431
     13 O3          5.3360   -0.4850   -1.4270 o         1 MOL     -0.675408
     14 O4          3.6020    0.3190   -0.2750 o         1 MOL     -0.675408
     15 H4          2.4570    1.3060   -4.6020 hn        1 MOL      0.286722
     16 H5          1.8320    0.9780   -1.8940 h1        1 MOL     -0.052105
     17 H6          4.5210    0.9460   -3.2590 hc        1 MOL      0.028605
     18 H7          3.2730   -0.3620   -3.2390 hc        1 MOL      0.028605
     19 N2          2.0330    3.3540   -1.1160 n         1 MOL     -0.036110
     20 C7          1.9840    4.7640   -0.6920 c3        1 MOL     -0.004067
     21 C8          2.7650    4.9710    0.6470 c         1 MOL      0.756833
     22 O5          2.8300    6.0800    1.1110 o         1 MOL     -0.604639
     23 C9          0.5340    5.1780   -0.7060 c3        1 MOL      0.028414
     24 C10         0.1080    6.6780   -0.5250 c3        1 MOL     -0.160260
     25 C11         0.8540    7.5570   -1.6200 c3        1 MOL      0.030086
     26 C12         0.4980    9.0370   -1.6370 c3        1 MOL     -0.111493
     27 N3         -0.6880    9.3220   -2.5570 n4        1 MOL     -0.364480
     28 H8          1.2530    2.7790   -0.8290 hn        1 MOL      0.180300
     29 H9          2.5580    5.4170   -1.3400 h1        1 MOL      0.001642
     30 H10         0.0940    4.5560    0.0770 hc        1 MOL      0.018546
     31 H11         0.1940    4.9580   -1.7180 hc        1 MOL      0.018546
     32 H12         0.4120    7.0250    0.4620 hc        1 MOL      0.053351
     33 H13        -0.9630    6.8570   -0.5770 hc        1 MOL      0.053351
     34 H14         0.6400    7.1450   -2.6090 hc        1 MOL      0.045293
     35 H15         1.9350    7.4450   -1.5000 hc        1 MOL      0.045293
     36 H16         1.4110    9.5830   -1.8970 hx        1 MOL      0.130620
     37 H17         0.2570    9.3010   -0.6030 hx        1 MOL      0.130620
     38 H18        -0.8030   10.3140   -2.6970 hn        1 MOL      0.332850
     39 H19        -0.3230    8.9640   -3.4320 hn        1 MOL      0.332850
     40 H20        -1.5500    8.8550   -2.2990 hn        1 MOL      0.332850
     41 N4          3.4470    3.9150    1.1890 n         1 MOL     -0.626339
     42 C13         4.3320    3.9480    2.4350 c3        1 MOL      0.196049
     43 C14         5.5490    2.9590    2.2310 c         1 MOL      0.416497
     44 O6          6.5120    3.0810    2.9890 o         1 MOL     -0.518269
     45 C15         3.4500    3.5350    3.6440 c3        1 MOL     -0.400072
     46 C16         2.6980    2.1480    3.4670 c         1 MOL      0.956508
     47 O7          1.8030    1.7920    4.1910 o         1 MOL     -0.741182
     48 O8          3.0050    1.3860    2.5260 o         1 MOL     -0.741182
     49 H21         3.3600    2.9900    0.7890 hn        1 MOL      0.066380
     50 H22         4.6800    4.9720    2.5630 h1        1 MOL      0.072711
     51 H23         2.7630    4.3510    3.8610 hc        1 MOL      0.091587
     52 H24         4.2020    3.4430    4.4320 hc        1 MOL      0.091587
     53 N5          5.6290    2.1830    1.1250 n         1 MOL     -0.065389
     54 C17         6.9590    1.6210    0.6580 c3        1 MOL     -0.484671
     55 C18         7.3740    0.3420    1.4550 c         1 MOL      0.834422
     56 O9          8.3600    0.3470    2.1960 o         1 MOL     -0.586887
     57 H25         4.8250    2.0960    0.5190 hn        1 MOL      0.247689
     58 H26         7.6690    2.4440    0.6770 h1        1 MOL      0.165876
     59 H27         6.8320    1.3210   -0.3800 h1        1 MOL      0.165876
     60 N6          6.6940   -0.8200    1.1740 n         1 MOL     -0.483008
     61 C19         6.9370   -2.1040    1.7920 c3        1 MOL     -0.043141
     62 C20         6.9420   -3.2270    0.7640 c         1 MOL      0.461363
     63 O10         7.1650   -4.4300    1.0780 o         1 MOL     -0.532022
     64 C21         5.8020   -2.2520    2.8450 c3        1 MOL     -0.064750
     65 C22         4.4240   -1.7710    2.4850 c         1 MOL      0.716692
     66 O11         3.7090   -1.2600    3.4100 o         1 MOL     -0.710871
     67 O12         3.8830   -2.1920    1.3820 o         1 MOL     -0.710871
     68 H28         6.0500   -0.8350    0.4020 hn        1 MOL      0.068505
     69 H29         7.8700   -2.1240    2.3450 h1        1 MOL      0.109723
     70 H30         6.1370   -1.6410    3.6840 hc        1 MOL      0.042310
     71 H31         5.7010   -3.2890    3.1640 hc        1 MOL      0.042310
     72 N7          6.6560   -2.8490   -0.5210 n         1 MOL     -0.243964
     73 C23         6.5400   -3.6950   -1.6480 c3        1 MOL     -0.250074
     74 C24         5.1180   -4.3310   -1.7950 c         1 MOL      0.546772
     75 O13         4.9810   -5.2300   -2.6330 o         1 MOL     -0.565599
     76 H32         6.3570   -1.8910   -0.5990 hn        1 MOL      0.288165
     77 H33         7.2290   -4.5270   -1.4790 h1        1 MOL      0.127928
     78 H34         6.7220   -3.2520   -2.6260 h1        1 MOL      0.127928
     79 N8          4.1130   -3.7720   -1.0700 n         1 MOL     -0.203597
     80 C25         2.8490   -4.3740   -0.8560 c3        1 MOL     -0.244665
     81 C26         1.6480   -3.4590   -0.8830 c         1 MOL      0.737836
     82 O14         1.8620   -2.2580   -0.5840 o         1 MOL     -0.686580
     83 C27         2.9080   -5.2190    0.4460 c3        1 MOL      0.456843
     84 C28         3.9010   -6.3270    0.4030 c3        1 MOL     -0.317011
     85 O15         3.1310   -4.6470    1.7220 oh        1 MOL     -0.606537
     86 H35         4.4250   -3.1280   -0.3560 hn        1 MOL      0.168666
     87 H36         2.6550   -5.0600   -1.6850 h1        1 MOL      0.078695
     88 H37         1.9670   -5.7690    0.5200 h1        1 MOL     -0.056696
     89 H38         3.4560   -3.7980    1.4200 ho        1 MOL      0.433319
     90 H39         3.8240   -6.9360   -0.4970 hc        1 MOL      0.072711
     91 H40         4.8990   -5.8930    0.4250 hc        1 MOL      0.072711
     92 H41         3.7760   -7.0470    1.2120 hc        1 MOL      0.072711
     93 N9          0.5030   -3.9300   -1.2750 n         1 MOL     -0.577766
     94 C29        -0.7050   -3.0830   -1.6120 c3        1 MOL      0.033328
     95 C30        -1.9930   -3.5620   -0.9480 c         1 MOL      0.536672
     96 O16        -2.4290   -4.7020   -1.0480 o         1 MOL     -0.543909
     97 C31        -0.7940   -2.8290   -3.1160 c3        1 MOL      0.076406
     98 C32         0.2340   -1.9900   -3.7810 c3        1 MOL      0.135477
     99 C33        -2.2180   -2.4000   -3.5610 c3        1 MOL     -0.376602
    100 C34         0.1210   -1.9420   -5.2810 c3        1 MOL     -0.194513
    101 H42         0.4680   -4.8360   -1.7110 hn        1 MOL      0.313247
    102 H43        -0.5600   -2.0970   -1.1750 h1        1 MOL      0.001469
    103 H44        -0.6060   -3.7720   -3.6190 hc        1 MOL      0.011205
    104 H45         1.2350   -2.3630   -3.5770 hc        1 MOL      0.017469
    105 H46         0.1710   -0.9560   -3.4380 hc        1 MOL      0.017469
    106 H47        -2.9900   -2.9300   -3.0000 hc        1 MOL      0.091496
    107 H48        -2.3070   -1.3190   -3.5510 hc        1 MOL      0.091496
    108 H49        -2.3960   -2.7760   -4.5750 hc        1 MOL      0.091496
    109 H50        -0.8060   -1.4250   -5.5320 hc        1 MOL      0.038016
    110 H51         0.9290   -1.3520   -5.7260 hc        1 MOL      0.038016
    111 H52         0.1320   -2.9300   -5.7330 hc        1 MOL      0.038016
    112 N10        -2.4270   -2.6680   -0.0330 n         1 MOL     -0.204948
    113 C35        -3.6980   -2.8770    0.7330 c3        1 MOL     -0.073859
    114 C36        -4.9980   -2.6870    0.0700 c         1 MOL      0.403280
    115 O17        -5.0890   -2.0870   -1.0690 o         1 MOL     -0.443833
    116 C37        -3.8400   -1.9350    1.9510 c3        1 MOL      0.042961
    117 C38        -2.5470   -1.9150    2.7920 c3        1 MOL     -0.420033
    118 O18        -4.1290   -0.5650    1.5820 oh        1 MOL     -0.440724
    119 H53        -1.8560   -1.8340    0.0170 hn        1 MOL      0.293530
    120 H54        -3.6990   -3.8550    1.2360 h1        1 MOL      0.100741
    121 H55        -4.6190   -2.3300    2.5910 h1        1 MOL      0.068074
    122 H56        -3.5730   -0.0130    2.1480 ho        1 MOL      0.410875
    123 H57        -1.6360   -1.6690    2.2490 hc        1 MOL      0.118653
    124 H58        -2.6420   -1.2980    3.6820 hc        1 MOL      0.118653
    125 H59        -2.3750   -2.9210    3.1850 hc        1 MOL      0.118653
    126 N11        -6.1640   -3.0520    0.6190 n         1 MOL     -0.263406
    127 C39        -7.5200   -2.6280    0.0750 c3        1 MOL     -0.123205
    128 C40        -7.6530   -1.1260   -0.2080 c         1 MOL      0.375445
    129 O19        -8.4160   -0.6970   -1.1080 o         1 MOL     -0.497059
    130 C41        -8.6450   -3.0860    0.9930 c3        1 MOL      0.256702
    131 C42        -8.7460   -4.6360    0.9770 c3        1 MOL     -0.407738
    132 O20        -8.3930   -2.7450    2.2920 oh        1 MOL     -0.632855
    133 H60        -6.2150   -3.6780    1.4130 hn        1 MOL      0.268703
    134 H61        -7.6910   -3.0490   -0.9260 h1        1 MOL      0.140718
    135 H62        -9.5550   -2.6420    0.6060 h1        1 MOL      0.061886
    136 H63        -9.1730   -2.9600    2.8000 ho        1 MOL      0.423863
    137 H64        -9.6430   -4.9320    1.5330 hc        1 MOL      0.115361
    138 H65        -8.7790   -5.0810   -0.0160 hc        1 MOL      0.115361
    139 H66        -7.8200   -5.0300    1.3990 hc        1 MOL      0.115361
    140 N12        -6.9070   -0.2580    0.5550 n         1 MOL     -0.208122
    141 C43        -6.9340    1.2340    0.4330 c3        1 MOL      0.007754
    142 C44        -5.9780    1.6430   -0.7160 c         1 MOL      0.345333
    143 O21        -6.3630    2.4980   -1.5300 o         1 MOL     -0.529363
    144 C45        -6.4520    1.8870    1.7690 c3        1 MOL     -0.225966
    145 C46        -7.5880    1.8430    2.8740 c3        1 MOL      0.088052
    146 C47        -6.9960    2.3980    4.1650 c3        1 MOL     -0.023203
    147 C48        -7.9560    2.2790    5.3940 c3        1 MOL      0.114451
    148 N13        -7.2550    2.4600    6.6660 n4        1 MOL     -0.391848
    149 H67        -6.2930   -0.7270    1.2000 hn        1 MOL      0.168052
    150 H68        -7.9240    1.6410    0.2180 h1        1 MOL      0.108181
    151 H69        -6.3730    2.9480    1.5540 hc        1 MOL      0.089978
    152 H70        -5.4880    1.5420    2.1270 hc        1 MOL      0.089978
    153 H71        -8.0360    0.8690    3.0470 hc        1 MOL      0.011419
    154 H72        -8.4800    2.4390    2.6480 hc        1 MOL      0.011419
    155 H73        -6.6310    3.4180    4.0340 hc        1 MOL      0.011241
    156 H74        -6.1240    1.7690    4.3790 hc        1 MOL      0.011241
    157 H75        -8.4660    1.3170    5.2590 hx        1 MOL      0.055290
    158 H76        -8.7650    2.9950    5.3070 hx        1 MOL      0.055290
    159 H77        -6.5770    3.2060    6.5460 hn        1 MOL      0.323358
    160 H78        -7.8400    2.6450    7.4720 hn        1 MOL      0.323358
    161 H79        -6.7560    1.6070    6.8360 hn        1 MOL      0.323358
    162 N14        -4.7910    1.0500   -0.8580 n         1 MOL     -0.007512
    163 C49        -3.8920    1.3170   -1.9870 c3        1 MOL     -0.320813
    164 C50        -4.3290    0.7090   -3.3550 c         1 MOL      0.491512
    165 O22        -3.7420    1.0410   -4.4230 o         1 MOL     -0.536292
    166 C51        -2.5580    0.7040   -1.5600 c3        1 MOL      0.221623
    167 C52        -1.9200    1.5000   -0.3770 c3        1 MOL     -0.259777
    168 C53        -0.6420    0.9030    0.1020 c         1 MOL      0.637031
    169 O23        -0.4460   -0.3400    0.2320 o         1 MOL     -0.610050
    170 O24         0.3130    1.6190    0.3920 o         1 MOL     -0.610050
    171 H80        -4.5080    0.3200   -0.2230 hn        1 MOL      0.023340
    172 H81        -3.7320    2.3920   -2.0010 h1        1 MOL      0.154631
    173 H82        -1.7430    0.7660   -2.2800 hc        1 MOL      0.038233
    174 H83        -2.7680   -0.3380   -1.3530 hc        1 MOL      0.038233
    175 H84        -2.6250    1.6680    0.4380 hc        1 MOL      0.023826
    176 H85        -1.6920    2.4700   -0.8260 hc        1 MOL      0.023826
    177 N15        -5.4020   -0.0720   -3.2990 n         1 MOL     -0.185905
    178 C54        -6.0560   -0.6340   -4.5010 c3        1 MOL     -0.361771
    179 H86        -6.8920   -1.2640   -4.1980 h1        1 MOL      0.135267
    180 H87        -6.4230    0.1790   -5.1290 h1        1 MOL      0.135267
    181 H88        -5.3360   -1.2300   -5.0610 h1        1 MOL      0.135267
    182 H89        -5.8520   -0.1810   -2.4030 hn        1 MOL      0.303729
    183 Ca1         1.7700   -0.5430    1.4270 Ca        1 MOL      1.715028
    184 O25        -0.0430    0.1400    3.6060 oh        1 MOL     -0.881151
    185 H90        -0.1280   -0.4770    4.3300 ho        1 MOL      0.402511
    186 H91         0.5460    0.8140    3.9430 ho        1 MOL      0.402511
    187 O26         0.7400   -3.1130    2.3890 oh        1 MOL     -0.881151
    188 H92         1.2460   -3.9270    2.4010 ho        1 MOL      0.402511
    189 H93         0.2600   -3.1120    3.2260 ho        1 MOL      0.402511
@<TRIPOS>BOND
     1    1    2 1   
     2    1    4 1   
     3    1    5 1   
     4    1    6 1   
     5    2    3 2   
     6    2    7 1   
     7    7    8 1   
     8    7   15 1   
     9    8    9 1   
    10    8   11 1   
    11    8   16 1   
    12    9   10 2   
    13    9   19 1   
    14   11   12 1   
    15   11   17 1   
    16   11   18 1   
    17   12   13 1   
    18   12   14 1   
    19   19   20 1   
    20   19   28 1   
    21   20   21 1   
    22   20   23 1   
    23   20   29 1   
    24   21   22 2   
    25   21   41 1   
    26   23   24 1   
    27   23   30 1   
    28   23   31 1   
    29   24   25 1   
    30   24   32 1   
    31   24   33 1   
    32   25   26 1   
    33   25   34 1   
    34   25   35 1   
    35   26   27 1   
    36   26   36 1   
    37   26   37 1   
    38   27   38 1   
    39   27   39 1   
    40   27   40 1   
    41   41   42 1   
    42   41   49 1   
    43   42   43 1   
    44   42   45 1   
    45   42   50 1   
    46   43   44 2   
    47   43   53 1   
    48   45   46 1   
    49   45   51 1   
    50   45   52 1   
    51   46   47 1   
    52   46   48 1   
    53   53   54 1   
    54   53   57 1   
    55   54   55 1   
    56   54   58 1   
    57   54   59 1   
    58   55   56 2   
    59   55   60 1   
    60   60   61 1   
    61   60   68 1   
    62   61   62 1   
    63   61   64 1   
    64   61   69 1   
    65   62   63 2   
    66   62   72 1   
    67   64   65 1   
    68   64   70 1   
    69   64   71 1   
    70   65   66 1   
    71   65   67 1   
    72   72   73 1   
    73   72   76 1   
    74   73   74 1   
    75   73   77 1   
    76   73   78 1   
    77   74   75 2   
    78   74   79 1   
    79   79   80 1   
    80   79   86 1   
    81   80   81 1   
    82   80   83 1   
    83   80   87 1   
    84   81   82 2   
    85   81   93 1   
    86   83   84 1   
    87   83   85 1   
    88   83   88 1   
    89   84   90 1   
    90   84   91 1   
    91   84   92 1   
    92   85   89 1   
    93   93   94 1   
    94   93  101 1   
    95   94   95 1   
    96   94   97 1   
    97   94  102 1   
    98   95   96 2   
    99   95  112 1   
   100   97   98 1   
   101   97   99 1   
   102   97  103 1   
   103   98  100 1   
   104   98  104 1   
   105   98  105 1   
   106   99  106 1   
   107   99  107 1   
   108   99  108 1   
   109  100  109 1   
   110  100  110 1   
   111  100  111 1   
   112  112  113 1   
   113  112  119 1   
   114  113  114 1   
   115  113  116 1   
   116  113  120 1   
   117  114  115 2   
   118  114  126 1   
   119  116  117 1   
   120  116  118 1   
   121  116  121 1   
   122  117  123 1   
   123  117  124 1   
   124  117  125 1   
   125  118  122 1   
   126  126  127 1   
   127  126  133 1   
   128  127  128 1   
   129  127  130 1   
   130  127  134 1   
   131  128  129 2   
   132  128  140 1   
   133  130  131 1   
   134  130  132 1   
   135  130  135 1   
   136  131  137 1   
   137  131  138 1   
   138  131  139 1   
   139  132  136 1   
   140  140  141 1   
   141  140  149 1   
   142  141  142 1   
   143  141  144 1   
   144  141  150 1   
   145  142  143 2   
   146  142  162 1   
   147  144  145 1   
   148  144  151 1   
   149  144  152 1   
   150  145  146 1   
   151  145  153 1   
   152  145  154 1   
   153  146  147 1   
   154  146  155 1   
   155  146  156 1   
   156  147  148 1   
   157  147  157 1   
   158  147  158 1   
   159  148  159 1   
   160  148  160 1   
   161  148  161 1   
   162  162  163 1   
   163  162  171 1   
   164  163  164 1   
   165  163  166 1   
   166  163  172 1   
   167  164  165 2   
   168  164  177 1   
   169  166  167 1   
   170  166  173 1   
   171  166  174 1   
   172  167  168 1   
   173  167  175 1   
   174  167  176 1   
   175  168  169 1   
   176  168  170 1   
   177  177  178 1   
   178  177  182 1   
   179  178  179 1   
   180  178  180 1   
   181  178  181 1   
   182  184  185 1   
   183  184  186 1   
   184  187  188 1   
   185  187  189 1   
@<TRIPOS>SUBSTRUCTURE
     1 MOL         1 TEMP              0 ****  ****    0 ROOT
