@<TRIPOS>MOLECULE
MOL
  186   183     1     0     0
SMALL
resp


@<TRIPOS>ATOM
      1 C1          0.4740   -1.9120    6.5310 c3        1 MOL     -0.262942
      2 C2          0.7720   -2.1350    5.0450 c         1 MOL      0.763473
      3 O1         -0.0170   -2.7210    4.3520 o         1 MOL     -0.586263
      4 H1          0.8490   -2.7570    7.1070 hc        1 MOL      0.053391
      5 H2          0.9640   -0.9980    6.8680 hc        1 MOL      0.053391
      6 H3         -0.6020   -1.8220    6.6770 hc        1 MOL      0.053391
      7 N1          1.8620   -1.5630    4.5150 n         1 MOL     -0.600350
      8 C3          2.3410   -1.7230    3.1170 c3        1 MOL      0.075771
      9 C4          2.7410   -3.1970    2.6990 c         1 MOL      0.432498
     10 O2          3.4680   -3.8440    3.4670 o         1 MOL     -0.553863
     11 C5          3.4670   -0.7060    3.0510 c3        1 MOL     -0.003411
     12 C6          4.0210   -0.5250    1.6500 c         1 MOL      0.849365
     13 O3          4.9270    0.3060    1.5050 o         1 MOL     -0.790927
     14 O4          3.4620   -0.9810    0.5980 o         1 MOL     -0.790927
     15 H4          2.4280   -0.9600    5.1010 hn        1 MOL      0.294692
     16 H5          1.5020   -1.3810    2.5040 h1        1 MOL      0.111276
     17 H6          4.2960   -0.9840    3.6980 hc        1 MOL      0.000088
     18 H7          3.0910    0.2690    3.3840 hc        1 MOL      0.000088
     19 N2          2.3170   -3.6330    1.4650 n         1 MOL     -0.013416
     20 C7          2.4180   -5.0790    1.1160 c3        1 MOL     -0.090573
     21 C8          3.3830   -5.3340   -0.1020 c         1 MOL      0.416850
     22 O5          4.1370   -6.2440   -0.0570 o         1 MOL     -0.519189
     23 C9          0.9260   -5.5570    0.7630 c3        1 MOL      0.311505
     24 C10         0.1030   -5.3060    2.0720 c3        1 MOL     -0.068580
     25 C11         0.7920   -7.0020    0.2360 c3        1 MOL     -0.323265
     26 C12        -1.3310   -5.7470    2.0830 c3        1 MOL     -0.002084
     27 H8          1.7850   -3.0140    0.8680 hn        1 MOL     -0.279775
     28 H9          2.8060   -5.6840    1.9360 h1        1 MOL      0.074381
     29 H10         0.4890   -4.9470   -0.0240 hc        1 MOL     -0.018110
     30 H11         0.0600   -4.2140    2.1210 hc        1 MOL      0.029212
     31 H12         0.5700   -5.7440    2.9470 hc        1 MOL      0.029212
     32 H13         1.2710   -7.1050   -0.7380 hc        1 MOL      0.060201
     33 H14         1.2790   -7.6210    1.0040 hc        1 MOL      0.060201
     34 H15        -0.2490   -7.2540    0.0710 hc        1 MOL      0.060201
     35 H16        -1.7200   -5.5340    3.0890 hc        1 MOL     -0.009513
     36 H17        -2.0530   -5.3160    1.3980 hc        1 MOL     -0.009513
     37 H18        -1.4200   -6.8210    1.9480 hc        1 MOL     -0.009513
     38 N3          3.3360   -4.4760   -1.1880 n         1 MOL     -0.223306
     39 C13         4.3710   -4.4200   -2.2110 c3        1 MOL     -0.156842
     40 C14         5.6620   -3.6600   -1.7680 c         1 MOL      0.449449
     41 O6          6.7320   -3.8000   -2.3120 o         1 MOL     -0.543625
     42 C15         3.8020   -3.9270   -3.5690 c3        1 MOL     -0.050893
     43 C16         2.8480   -2.6790   -3.4410 c         1 MOL      0.578867
     44 O7          3.2800   -1.6800   -2.8270 o         1 MOL     -0.635900
     45 O8          1.7560   -2.7420   -3.9910 o         1 MOL     -0.635900
     46 H19         2.7190   -3.6970   -1.0400 hn        1 MOL      0.230053
     47 H20         4.6940   -5.4650   -2.2680 h1        1 MOL      0.113259
     48 H21         3.2830   -4.7750   -4.0010 hc        1 MOL      0.029775
     49 H22         4.6130   -3.6540   -4.2410 hc        1 MOL      0.029775
     50 N4          5.6560   -2.8590   -0.7220 n         1 MOL      0.055775
     51 C17         6.8590   -2.2210   -0.2900 c3        1 MOL     -0.515748
     52 C18         7.2710   -1.0760   -1.2430 c         1 MOL      0.708576
     53 O9          8.2640   -1.1430   -2.0070 o         1 MOL     -0.587388
     54 H23         4.8050   -2.6410   -0.2120 hn        1 MOL      0.145480
     55 H24         7.6530   -2.9480   -0.1170 h1        1 MOL      0.159879
     56 H25         6.7450   -1.7200    0.6690 h1        1 MOL      0.159879
     57 N5          6.6670    0.1270   -1.1300 n         1 MOL     -0.358557
     58 C19         7.1370    1.4920   -1.6570 c3        1 MOL     -0.020982
     59 C20         7.3200    2.5210   -0.5330 c         1 MOL      0.457772
     60 O10         7.8820    3.6520   -0.6740 o         1 MOL     -0.563707
     61 C21         6.2630    1.9960   -2.7880 c3        1 MOL     -0.098748
     62 C22         4.7700    2.1440   -2.4000 c         1 MOL      0.597008
     63 O11         4.0530    2.7050   -3.2010 o         1 MOL     -0.648472
     64 O12         4.3230    1.5510   -1.3460 o         1 MOL     -0.648472
     65 H26         5.7990    0.1210   -0.6130 hn        1 MOL      0.054894
     66 H27         8.1290    1.3270   -2.0960 h1        1 MOL      0.086301
     67 H28         6.3750    1.2280   -3.5460 hc        1 MOL      0.053750
     68 H29         6.6110    2.9420   -3.2000 hc        1 MOL      0.053750
     69 N6          6.9140    2.1580    0.6920 n         1 MOL     -0.315447
     70 C23         6.7530    2.9450    1.9520 c3        1 MOL     -0.170891
     71 C24         5.5180    3.8920    1.8720 c         1 MOL      0.582054
     72 O13         5.3650    4.8120    2.6620 o         1 MOL     -0.618671
     73 H30         6.2850    1.3580    0.7350 hn        1 MOL      0.260453
     74 H31         7.6280    3.5830    2.0820 h1        1 MOL      0.099380
     75 H32         6.5320    2.3370    2.8390 h1        1 MOL      0.099380
     76 N7          4.5930    3.4950    1.0100 n         1 MOL     -0.401362
     77 C25         3.2640    4.1160    1.0050 c3        1 MOL     -0.009399
     78 C26         2.1060    3.1150    0.9720 c         1 MOL      0.518603
     79 O14         1.9350    2.3210    0.0740 o         1 MOL     -0.569112
     80 C27         3.1240    5.1640   -0.1020 c3        1 MOL     -0.119477
     81 C28         4.0320    6.3630    0.0560 c3        1 MOL     -0.127446
     82 C29         3.6740    7.5290   -0.8840 c         1 MOL      0.683288
     83 N8          4.3920    8.6440   -0.7680 n         1 MOL     -0.829632
     84 O15         2.6770    7.4760   -1.6110 o         1 MOL     -0.566930
     85 H33         4.7000    2.6700    0.4420 hn        1 MOL      0.457968
     86 H34         3.1500    4.6350    1.9540 h1        1 MOL      0.088177
     87 H35         2.0800    5.4770   -0.0820 hc        1 MOL      0.077243
     88 H36         3.4180    4.7020   -1.0390 hc        1 MOL      0.077243
     89 H37         5.0450    5.9670   -0.0550 hc        1 MOL      0.051596
     90 H38         3.8910    6.7440    1.0680 hc        1 MOL      0.051596
     91 H39         5.2640    8.6800   -0.2570 hn        1 MOL      0.353267
     92 H40         4.1280    9.4330   -1.3360 hn        1 MOL      0.353267
     93 N9          1.2070    3.2700    1.9600 n         1 MOL     -0.444709
     94 C30        -0.0100    2.3770    2.0060 c3        1 MOL      0.056484
     95 C31        -0.9410    2.9540    1.0530 c         1 MOL      0.515729
     96 O16        -1.4050    4.0670    1.0970 o         1 MOL     -0.600955
     97 C32        -0.6070    2.3530    3.4260 c3        1 MOL      0.387287
     98 C33        -1.7670    1.3570    3.7200 c3        1 MOL     -0.229647
     99 C34         0.4420    2.0170    4.4410 c3        1 MOL     -0.229647
    100 H41         1.4260    3.9040    2.7050 hn        1 MOL      0.250793
    101 H42         0.1560    1.3500    1.6930 h1        1 MOL     -0.020416
    102 H43        -1.0040    3.3350    3.6880 hc        1 MOL     -0.084510
    103 H44        -2.2260    1.5310    4.7010 hc        1 MOL      0.032092
    104 H45        -2.4870    1.4480    2.9110 hc        1 MOL      0.032092
    105 H46        -1.3120    0.3670    3.7790 hc        1 MOL      0.032092
    106 H47        -0.0050    2.0850    5.4340 hc        1 MOL      0.032092
    107 H48         0.8520    1.0210    4.3000 hc        1 MOL      0.032092
    108 H49         1.2560    2.7250    4.5350 hc        1 MOL      0.032092
    109 N10        -1.2450    2.1540    0.0230 n         1 MOL     -0.112066
    110 C35        -2.3010    2.3020   -0.9590 c3        1 MOL     -0.186432
    111 C36        -3.6830    1.9510   -0.3840 c         1 MOL      0.463014
    112 O17        -3.7000    1.1730    0.5570 o         1 MOL     -0.377228
    113 C37        -1.8550    1.3850   -2.0740 c3        1 MOL      0.013069
    114 C38        -2.8450    1.4970   -3.2540 c         1 MOL      0.608517
    115 N11        -2.8460    2.6450   -3.9280 n         1 MOL     -0.774125
    116 O18        -3.5310    0.5830   -3.5910 o         1 MOL     -0.519310
    117 H50        -0.6660    1.3320   -0.0550 hn        1 MOL      0.096962
    118 H51        -2.2330    3.3210   -1.3490 h1        1 MOL      0.073790
    119 H52        -1.8330    0.3720   -1.7000 hc        1 MOL      0.057800
    120 H53        -0.8350    1.5450   -2.4390 hc        1 MOL      0.057800
    121 H54        -2.1590    3.3330   -3.6740 hn        1 MOL      0.351535
    122 H55        -3.5820    2.6190   -4.6170 hn        1 MOL      0.351535
    123 N12        -4.7940    2.5000   -0.9560 n         1 MOL     -0.470126
    124 C39        -6.1280    2.3530   -0.3210 c3        1 MOL      0.275755
    125 C40        -6.4430    0.8410   -0.1380 c         1 MOL      0.770140
    126 O19        -7.0140    0.3970    0.8600 o         1 MOL     -0.573970
    127 C41        -7.1950    3.0540   -1.0780 c3        1 MOL     -0.116765
    128 C42        -8.6620    2.8230   -0.6110 ca        1 MOL      0.042867
    129 C43        -9.2220    3.4180    0.5660 ca        1 MOL     -0.248101
    130 C44        -9.4890    1.9840   -1.3720 ca        1 MOL     -0.248101
    131 C45       -10.5400    3.1790    0.9440 ca        1 MOL     -0.166358
    132 C46       -10.8360    1.6860   -0.9740 ca        1 MOL     -0.166358
    133 C47       -11.3680    2.3300    0.1650 ca        1 MOL      0.295764
    134 O20       -12.6690    2.0990    0.4130 oh        1 MOL     -0.516825
    135 H56        -4.6590    3.2890   -1.5650 hn        1 MOL      0.244567
    136 H57        -6.2080    2.7220    0.7080 h1        1 MOL     -0.023430
    137 H58        -7.1770    2.7810   -2.1350 hc        1 MOL      0.043535
    138 H59        -7.0180    4.1320   -1.0020 hc        1 MOL      0.043535
    139 H60        -8.6690    4.1760    1.1030 ha        1 MOL      0.160367
    140 H61        -9.0820    1.4360   -2.2200 ha        1 MOL      0.160367
    141 H62       -11.0680    3.6780    1.7510 ha        1 MOL      0.120370
    142 H63       -11.4620    1.0510   -1.5760 ha        1 MOL      0.120370
    143 H64       -13.0990    1.5980   -0.2870 ho        1 MOL      0.373576
    144 N13        -6.1760   -0.0220   -1.1430 n         1 MOL     -0.530083
    145 C48        -6.3560   -1.4860   -1.1130 c3        1 MOL     -0.000162
    146 C49        -5.5910   -2.1680   -0.0320 c         1 MOL      0.236943
    147 O21        -6.0650   -3.1430    0.5230 o         1 MOL     -0.500635
    148 C50        -5.8010   -1.9340   -2.4380 c3        1 MOL      0.339011
    149 C51        -6.1760   -3.2840   -2.9880 c3        1 MOL     -0.311921
    150 C52        -5.6560   -3.5920   -4.4100 c         1 MOL      0.741715
    151 O22        -6.3960   -4.2390   -5.1960 o         1 MOL     -0.742067
    152 O23        -4.5280   -3.2280   -4.7380 o         1 MOL     -0.742067
    153 H65        -5.5260    0.2750   -1.8480 hn        1 MOL      0.131145
    154 H66        -7.4230   -1.7110   -1.1000 h1        1 MOL      0.100323
    155 H67        -4.7140   -1.8420   -2.5510 hc        1 MOL     -0.038190
    156 H68        -6.3170   -1.3550   -3.1950 hc        1 MOL     -0.038190
    157 H69        -7.2640   -3.3650   -2.9150 hc        1 MOL      0.015404
    158 H70        -5.8600   -4.1250   -2.3710 hc        1 MOL      0.015404
    159 N14        -4.4560   -1.5970    0.4480 n         1 MOL     -0.008655
    160 C53        -3.8210   -2.1620    1.6270 c3        1 MOL     -0.073504
    161 C54        -4.3560   -1.6200    2.9570 c         1 MOL      0.425374
    162 O24        -4.3640   -2.3340    3.9320 o         1 MOL     -0.555880
    163 C55        -2.3060   -1.8470    1.5690 c3        1 MOL      0.108154
    164 C56        -1.5900   -2.2600    0.2800 c3        1 MOL     -0.299253
    165 C57        -0.2140   -1.5850    0.0530 c         1 MOL      0.668380
    166 O25         0.7550   -2.2740   -0.3880 o         1 MOL     -0.561779
    167 O26        -0.0890   -0.3550    0.1160 o         1 MOL     -0.561779
    168 H71        -4.1080   -0.7370    0.0250 hn        1 MOL      0.091522
    169 H72        -3.7980   -3.2510    1.5650 h1        1 MOL      0.099222
    170 H73        -1.7800   -2.4210    2.3340 hc        1 MOL      0.018375
    171 H74        -2.1050   -0.7870    1.7560 hc        1 MOL      0.018375
    172 H75        -2.1450   -2.0080   -0.6190 hc        1 MOL      0.114115
    173 H76        -1.4650   -3.3440    0.3270 hc        1 MOL      0.114115
    174 N15        -4.9630   -0.4300    2.9170 n         1 MOL      0.041778
    175 C58        -5.7140    0.1210    4.0420 c3        1 MOL     -0.287949
    176 H77        -6.3760   -0.6450    4.4470 h1        1 MOL      0.088557
    177 H78        -5.0210    0.4480    4.8170 h1        1 MOL      0.088557
    178 H79        -6.3080    0.9690    3.7020 h1        1 MOL      0.088557
    179 H80        -4.9310    0.1640    2.0980 hn        1 MOL      0.044567
    180 Ca1         2.1230    0.0490   -1.3080 Ca        1 MOL      1.707615
    181 O27         0.1810   -0.7490   -3.0380 oh        1 MOL     -0.926510
    182 H81         0.8210   -1.3690   -3.3970 ho        1 MOL      0.422776
    183 H82        -0.4480   -0.6140   -3.7480 ho        1 MOL      0.422776
    184 O28         1.8120    1.5980   -3.3970 oh        1 MOL     -0.926510
    185 H83         2.5740    2.1770   -3.4140 ho        1 MOL      0.422776
    186 H84         1.7250    1.3020   -4.3040 ho        1 MOL      0.422776
@<TRIPOS>BOND
     1    1    2 1   
     2    1    4 1   
     3    1    5 1   
     4    1    6 1   
     5    2    3 2   
     6    2    7 1   
     7    7    8 1   
     8    7   15 1   
     9    8    9 1   
    10    8   11 1   
    11    8   16 1   
    12    9   10 2   
    13    9   19 1   
    14   11   12 1   
    15   11   17 1   
    16   11   18 1   
    17   12   13 1   
    18   12   14 1   
    19   19   20 1   
    20   19   27 1   
    21   20   21 1   
    22   20   23 1   
    23   20   28 1   
    24   21   22 2   
    25   21   38 1   
    26   23   24 1   
    27   23   25 1   
    28   23   29 1   
    29   24   26 1   
    30   24   30 1   
    31   24   31 1   
    32   25   32 1   
    33   25   33 1   
    34   25   34 1   
    35   26   35 1   
    36   26   36 1   
    37   26   37 1   
    38   38   39 1   
    39   38   46 1   
    40   39   40 1   
    41   39   42 1   
    42   39   47 1   
    43   40   41 2   
    44   40   50 1   
    45   42   43 1   
    46   42   48 1   
    47   42   49 1   
    48   43   44 1   
    49   43   45 1   
    50   50   51 1   
    51   50   54 1   
    52   51   52 1   
    53   51   55 1   
    54   51   56 1   
    55   52   53 2   
    56   52   57 1   
    57   57   58 1   
    58   57   65 1   
    59   58   59 1   
    60   58   61 1   
    61   58   66 1   
    62   59   60 2   
    63   59   69 1   
    64   61   62 1   
    65   61   67 1   
    66   61   68 1   
    67   62   63 1   
    68   62   64 1   
    69   69   70 1   
    70   69   73 1   
    71   70   71 1   
    72   70   74 1   
    73   70   75 1   
    74   71   72 2   
    75   71   76 1   
    76   76   77 1   
    77   76   85 1   
    78   77   78 1   
    79   77   80 1   
    80   77   86 1   
    81   78   79 2   
    82   78   93 1   
    83   80   81 1   
    84   80   87 1   
    85   80   88 1   
    86   81   82 1   
    87   81   89 1   
    88   81   90 1   
    89   82   83 1   
    90   82   84 2   
    91   83   91 1   
    92   83   92 1   
    93   93   94 1   
    94   93  100 1   
    95   94   95 1   
    96   94   97 1   
    97   94  101 1   
    98   95   96 2   
    99   95  109 1   
   100   97   98 1   
   101   97   99 1   
   102   97  102 1   
   103   98  103 1   
   104   98  104 1   
   105   98  105 1   
   106   99  106 1   
   107   99  107 1   
   108   99  108 1   
   109  109  110 1   
   110  109  117 1   
   111  110  111 1   
   112  110  113 1   
   113  110  118 1   
   114  111  112 2   
   115  111  123 1   
   116  113  114 1   
   117  113  119 1   
   118  113  120 1   
   119  114  115 1   
   120  114  116 2   
   121  115  121 1   
   122  115  122 1   
   123  123  124 1   
   124  123  135 1   
   125  124  125 1   
   126  124  127 1   
   127  124  136 1   
   128  125  126 2   
   129  125  144 1   
   130  127  128 1   
   131  127  137 1   
   132  127  138 1   
   133  128  129 ar  
   134  128  130 ar  
   135  129  131 ar  
   136  129  139 1   
   137  130  132 ar  
   138  130  140 1   
   139  131  133 ar  
   140  131  141 1   
   141  132  133 ar  
   142  132  142 1   
   143  133  134 1   
   144  134  143 1   
   145  144  145 1   
   146  144  153 1   
   147  145  146 1   
   148  145  148 1   
   149  145  154 1   
   150  146  147 2   
   151  146  159 1   
   152  148  149 1   
   153  148  155 1   
   154  148  156 1   
   155  149  150 1   
   156  149  157 1   
   157  149  158 1   
   158  150  151 1   
   159  150  152 1   
   160  159  160 1   
   161  159  168 1   
   162  160  161 1   
   163  160  163 1   
   164  160  169 1   
   165  161  162 2   
   166  161  174 1   
   167  163  164 1   
   168  163  170 1   
   169  163  171 1   
   170  164  165 1   
   171  164  172 1   
   172  164  173 1   
   173  165  166 1   
   174  165  167 1   
   175  174  175 1   
   176  174  179 1   
   177  175  176 1   
   178  175  177 1   
   179  175  178 1   
   180  181  182 1   
   181  181  183 1   
   182  184  185 1   
   183  184  186 1   
@<TRIPOS>SUBSTRUCTURE
     1 MOL         1 TEMP              0 ****  ****    0 ROOT
