@<TRIPOS>MOLECULE
MOL
  179   176     1     0     0
SMALL
resp


@<TRIPOS>ATOM
      1 C1          1.3400    2.8890    6.0830 c3        1 MOL     -0.308796
      2 C2          1.1170    2.3920    4.6380 c         1 MOL      0.741790
      3 O1          2.0750    2.2550    3.9300 o         1 MOL     -0.584604
      4 H1          0.3850    2.9170    6.6080 hc        1 MOL      0.073321
      5 H2          2.0180    2.2100    6.6000 hc        1 MOL      0.073321
      6 H3          1.7720    3.8890    6.0620 hc        1 MOL      0.073321
      7 N1         -0.1510    2.2340    4.2460 n         1 MOL     -0.604352
      8 C3         -0.6710    2.0230    2.9030 c3        1 MOL     -0.048989
      9 C4         -0.5550    3.4300    2.2010 c         1 MOL      0.698825
     10 O2         -1.1750    4.3760    2.5890 o         1 MOL     -0.560177
     11 C5         -2.1670    1.5740    3.0940 c3        1 MOL     -0.041318
     12 C6         -2.8170    1.2260    1.7910 c         1 MOL      0.767587
     13 O3         -2.3680    1.6760    0.7150 o         1 MOL     -0.748412
     14 O4         -3.8920    0.6300    1.8270 o         1 MOL     -0.748412
     15 H4         -0.8160    2.4790    4.9650 hn        1 MOL      0.324259
     16 H5         -0.2450    1.1740    2.3710 h1        1 MOL      0.004751
     17 H6         -2.6670    2.3790    3.6320 hc        1 MOL      0.025899
     18 H7         -2.2000    0.6670    3.6850 hc        1 MOL      0.025899
     19 N2          0.3160    3.5270    1.2040 n         1 MOL     -0.221035
     20 C7          0.7360    4.8370    0.7370 c3        1 MOL     -0.345118
     21 C8         -0.4380    5.6580    0.0860 c         1 MOL      0.702115
     22 O5         -0.3550    6.8520   -0.0360 o         1 MOL     -0.597260
     23 C9          1.8330    4.6550   -0.3540 c3        1 MOL      0.313167
     24 C10         2.8310    5.8270   -0.4510 c3        1 MOL      0.044027
     25 C11         3.8260    5.4460   -1.5700 c3        1 MOL     -0.115874
     26 C12         4.6620    6.7010   -1.7790 c3        1 MOL     -0.024353
     27 N3          4.0060    7.8110   -2.4130 n4        1 MOL     -0.378657
     28 H8          0.7720    2.7300    0.7930 hn        1 MOL      0.239940
     29 H9          1.1330    5.4480    1.5460 h1        1 MOL      0.111732
     30 H10         1.3780    4.5030   -1.3370 hc        1 MOL     -0.053972
     31 H11         2.4460    3.7770   -0.1440 hc        1 MOL     -0.053972
     32 H12         3.3920    5.9560    0.4790 hc        1 MOL     -0.011938
     33 H13         2.2490    6.7370   -0.6190 hc        1 MOL     -0.011938
     34 H14         3.2250    5.2990   -2.4680 hc        1 MOL      0.079436
     35 H15         4.5180    4.6880   -1.2180 hc        1 MOL      0.079436
     36 H16         5.6110    6.5740   -2.2890 hx        1 MOL      0.112648
     37 H17         4.9280    7.0540   -0.7820 hx        1 MOL      0.112648
     38 H18         3.2720    8.2150   -1.8490 hn        1 MOL      0.328575
     39 H19         4.6000    8.6270   -2.4860 hn        1 MOL      0.328575
     40 H20         3.4830    7.6260   -3.2540 hn        1 MOL      0.328575
     41 N4         -1.5230    5.0080   -0.3920 n         1 MOL     -0.384203
     42 C13        -2.5690    5.4280   -1.3110 c3        1 MOL      0.097679
     43 C14        -4.0010    4.9290   -0.7800 c         1 MOL      0.378680
     44 O6         -4.9930    5.2860   -1.3330 o         1 MOL     -0.496975
     45 C15        -2.2720    4.7720   -2.6780 c3        1 MOL     -0.247207
     46 C16        -2.1160    3.2690   -2.4820 c         1 MOL      0.697933
     47 O7         -1.0280    2.7140   -2.2340 o         1 MOL     -0.695665
     48 O8         -3.1340    2.4940   -2.4880 o         1 MOL     -0.695665
     49 H21        -1.4840    4.0040   -0.2980 hn        1 MOL      0.087893
     50 H22        -2.6050    6.5130   -1.4180 h1        1 MOL      0.097592
     51 H23        -1.3670    5.3180   -2.9670 hc        1 MOL      0.071845
     52 H24        -3.0230    5.0440   -3.4140 hc        1 MOL      0.071845
     53 N5         -4.0240    4.1440    0.3520 n         1 MOL     -0.128955
     54 C17        -5.2380    3.7230    0.9860 c3        1 MOL     -0.199443
     55 C18        -6.0700    2.5700    0.2430 c         1 MOL      0.453377
     56 O9         -7.2190    2.3670    0.7370 o         1 MOL     -0.573550
     57 H25        -3.1260    3.9500    0.7750 hn        1 MOL      0.140015
     58 H26        -5.8120    4.6300    1.1600 h1        1 MOL      0.123291
     59 H27        -5.0570    3.3710    1.9990 h1        1 MOL      0.123291
     60 N6         -5.6140    1.8540   -0.7410 n         1 MOL     -0.091956
     61 C19        -6.2840    0.8000   -1.4470 c3        1 MOL     -0.081039
     62 C20        -6.6580   -0.3400   -0.4990 c         1 MOL      0.319216
     63 O10        -7.6820   -1.0260   -0.8440 o         1 MOL     -0.548749
     64 C21        -5.5380    0.2380   -2.6780 c3        1 MOL     -0.148322
     65 C22        -4.5070   -0.8850   -2.4960 c         1 MOL      0.762316
     66 N7         -4.4110   -1.7600   -3.4890 n         1 MOL     -0.709761
     67 O11        -3.8550   -0.9920   -1.4940 o         1 MOL     -0.730290
     68 H28        -4.6960    2.0450   -1.0990 hn        1 MOL      0.126903
     69 H29        -7.2460    1.2590   -1.6990 h1        1 MOL      0.127587
     70 H30        -5.1040    1.0000   -3.3240 hc        1 MOL      0.068517
     71 H31        -6.2850   -0.1680   -3.3650 hc        1 MOL      0.068517
     72 H32        -4.8250   -1.7070   -4.4100 hn        1 MOL      0.330993
     73 H33        -3.8620   -2.5730   -3.2630 hn        1 MOL      0.330993
     74 N8         -6.0970   -0.5750    0.6970 n         1 MOL      0.091458
     75 C23        -6.3400   -1.6490    1.6380 c3        1 MOL     -0.453278
     76 C24        -5.1020   -2.5180    1.8680 c         1 MOL      0.816112
     77 O12        -5.2790   -3.4780    2.7030 o         1 MOL     -0.616411
     78 H34        -5.3410    0.0450    0.9520 hn        1 MOL      0.193285
     79 H35        -7.0440   -2.4040    1.2850 h1        1 MOL      0.166781
     80 H36        -6.7390   -1.2210    2.5610 h1        1 MOL      0.166781
     81 N9         -3.9320   -2.2630    1.2140 n         1 MOL     -0.737125
     82 C25        -2.8550   -3.2510    1.0360 c3        1 MOL      0.469292
     83 C26        -1.4530   -2.5680    0.9740 c         1 MOL      0.451579
     84 O13        -1.3660   -1.4820    0.3760 o         1 MOL     -0.534145
     85 C27        -3.0030   -4.0890   -0.2820 c3        1 MOL      0.119152
     86 C28        -4.2470   -4.8800   -0.4840 ca        1 MOL     -0.038579
     87 C29        -5.4530   -4.4020   -1.0620 ca        1 MOL     -0.215363
     88 C30        -4.1750   -6.2320    0.0330 ca        1 MOL     -0.215363
     89 C31        -6.5660   -5.2450   -1.1850 ca        1 MOL     -0.152687
     90 C32        -5.3430   -7.0240   -0.0330 ca        1 MOL     -0.152687
     91 C33        -6.4900   -6.5090   -0.6890 ca        1 MOL      0.267926
     92 O14        -7.6140   -7.2960   -0.7570 oh        1 MOL     -0.492642
     93 H37        -3.8880   -1.5030    0.5480 hn        1 MOL      0.343047
     94 H38        -2.8120   -3.9390    1.8830 h1        1 MOL     -0.047276
     95 H39        -2.1600   -4.7790   -0.2750 hc        1 MOL     -0.046486
     96 H40        -2.8580   -3.4560   -1.1580 hc        1 MOL     -0.046486
     97 H41        -5.4310   -3.4400   -1.5620 ha        1 MOL      0.138220
     98 H42        -3.3450   -6.6990    0.5400 ha        1 MOL      0.138220
     99 H43        -7.4290   -4.8300   -1.6740 ha        1 MOL      0.128306
    100 H44        -5.2950   -8.0610    0.2790 ha        1 MOL      0.128306
    101 H45        -7.5820   -8.0710   -0.1940 ho        1 MOL      0.359120
    102 N10        -0.4500   -3.1520    1.5560 n         1 MOL     -0.591476
    103 C34         0.9370   -2.5950    1.5860 c3        1 MOL      0.053871
    104 C35         1.8240   -3.5740    0.7510 c         1 MOL      0.576818
    105 O15         1.7620   -4.7650    1.0570 o         1 MOL     -0.550405
    106 C36         1.4110   -2.3880    3.0720 c3        1 MOL     -0.061868
    107 C37         0.6070   -1.2380    3.7950 c3        1 MOL      0.138979
    108 C38         2.8910   -2.1500    3.0840 c3        1 MOL      0.002100
    109 C39         0.8110   -1.2710    5.3370 c3        1 MOL     -0.358795
    110 H46        -0.5200   -4.0210    2.0570 hn        1 MOL      0.335068
    111 H47         0.9580   -1.6420    1.0400 h1        1 MOL      0.096891
    112 H48         1.2540   -3.3150    3.6300 hc        1 MOL      0.055703
    113 H49        -0.4760   -1.3440    3.7120 hc        1 MOL      0.043935
    114 H50         0.9070   -0.2850    3.3540 hc        1 MOL      0.043935
    115 H51         3.1890   -1.4900    3.8910 hc        1 MOL      0.006871
    116 H52         3.4890   -3.0370    3.2470 hc        1 MOL      0.006871
    117 H53         3.1660   -1.4870    2.2620 hc        1 MOL      0.006871
    118 H54        -0.0660   -0.7400    5.6990 hc        1 MOL      0.080796
    119 H55         0.8810   -2.2930    5.7020 hc        1 MOL      0.080796
    120 H56         1.6990   -0.6950    5.6040 hc        1 MOL      0.080796
    121 N11         2.6160   -3.0560   -0.1980 n         1 MOL     -0.351507
    122 C40         3.5990   -3.8500   -0.9640 c3        1 MOL      0.073414
    123 C41         5.0040   -3.8520   -0.2700 c         1 MOL      0.457101
    124 O16         5.2020   -3.0320    0.6330 o         1 MOL     -0.413538
    125 C42         3.6300   -3.2040   -2.3680 c3        1 MOL     -0.237264
    126 O17         4.2800   -1.9780   -2.4600 oh        1 MOL     -0.361145
    127 H57         2.4820   -2.1150   -0.5320 hn        1 MOL      0.220880
    128 H58         3.2890   -4.8840   -1.1070 h1        1 MOL      0.063646
    129 H59         2.5660   -3.0060   -2.5440 h1        1 MOL      0.114326
    130 H60         4.0870   -3.9450   -3.0160 h1        1 MOL      0.114326
    131 H61         3.6370   -1.4250   -2.9130 ho        1 MOL      0.369531
    132 N12         5.9690   -4.6250   -0.7040 n         1 MOL     -0.478650
    133 C43         7.3690   -4.4250   -0.2750 c3        1 MOL      0.175178
    134 C44         7.8710   -3.0190   -0.5790 c         1 MOL      0.433436
    135 O18         8.4620   -2.4110    0.3310 o         1 MOL     -0.494598
    136 C45         8.1980   -5.5160   -0.8980 c3        1 MOL     -0.169403
    137 H62         5.8630   -5.1180   -1.5840 hn        1 MOL      0.294442
    138 H63         7.4050   -4.6480    0.7910 h1        1 MOL      0.092328
    139 H64         9.2450   -5.4880   -0.5880 hc        1 MOL      0.047278
    140 H65         7.7500   -6.4910   -0.7100 hc        1 MOL      0.047278
    141 H66         8.1470   -5.2980   -1.9580 hc        1 MOL      0.047278
    142 N13         7.4670   -2.4420   -1.7550 n         1 MOL     -0.373349
    143 C46         7.7990   -1.1170   -2.2610 c3        1 MOL      0.117351
    144 C47         7.1230    0.0710   -1.5290 c         1 MOL      0.409979
    145 O19         7.7640    1.0810   -1.4200 o         1 MOL     -0.496527
    146 C48         7.4150   -1.1750   -3.7470 c3        1 MOL     -0.236281
    147 H67         7.1120   -3.0280   -2.4880 hn        1 MOL      0.303321
    148 H68         8.8800   -0.9750   -2.2140 h1        1 MOL      0.071691
    149 H69         7.6960   -0.2640   -4.2740 hc        1 MOL      0.058292
    150 H70         7.7200   -2.1290   -4.1860 hc        1 MOL      0.058292
    151 H71         6.3300   -1.2450   -3.6880 hc        1 MOL      0.058292
    152 N14         5.8190   -0.0740   -1.0880 n         1 MOL     -0.106137
    153 C49         5.2450    0.7960   -0.1540 c3        1 MOL     -0.185622
    154 C50         5.8890    0.6720    1.2660 c         1 MOL      0.447694
    155 O20         5.9270    1.7300    1.9490 o         1 MOL     -0.549384
    156 C51         3.7200    0.6360   -0.0750 c3        1 MOL      0.427232
    157 C52         3.0210    0.8440   -1.3750 c3        1 MOL      0.175320
    158 C53         1.5020    0.4710   -1.3320 c         1 MOL      0.496286
    159 O21         0.9280    0.0420   -2.3940 o         1 MOL     -0.706200
    160 O22         0.8840    0.6910   -0.2960 o         1 MOL     -0.706200
    161 H72         5.3540   -0.9390   -1.3260 hn        1 MOL     -0.008605
    162 H73         5.4000    1.8480   -0.3750 h1        1 MOL      0.079813
    163 H74         3.2830    1.2260    0.7260 hc        1 MOL     -0.068668
    164 H75         3.5070   -0.3790    0.2800 hc        1 MOL     -0.068668
    165 H76         3.5190    0.3820   -2.2330 hc        1 MOL     -0.103559
    166 H77         3.2310    1.8880   -1.5810 hc        1 MOL     -0.103559
    167 N15         6.3690   -0.4970    1.7410 n         1 MOL     -0.086652
    168 C54         6.9310   -0.6850    3.0620 c3        1 MOL     -0.259636
    169 H78         7.7550   -1.3970    3.0080 h1        1 MOL      0.107416
    170 H79         7.3000    0.2690    3.4390 h1        1 MOL      0.107416
    171 H80         6.1620   -1.0690    3.7330 h1        1 MOL      0.107416
    172 H81         6.2650   -1.3330    1.1820 hn        1 MOL      0.108698
    173 Ca1        -1.5120    0.3560   -1.5310 Ca        1 MOL      1.757721
    174 O23        -2.0130    0.2990   -4.1140 oh        1 MOL     -0.823587
    175 H82        -2.6480    0.8460   -4.5700 ho        1 MOL      0.403868
    176 H83        -1.7140   -0.3220   -4.7800 ho        1 MOL      0.403868
    177 O24        -1.3300   -2.2610   -2.8020 oh        1 MOL     -0.823587
    178 H84        -1.2290   -2.2940   -3.7540 ho        1 MOL      0.403868
    179 H85        -1.1400   -3.1560   -2.5130 ho        1 MOL      0.403868
@<TRIPOS>BOND
     1    1    2 1   
     2    1    4 1   
     3    1    5 1   
     4    1    6 1   
     5    2    3 2   
     6    2    7 1   
     7    7    8 1   
     8    7   15 1   
     9    8    9 1   
    10    8   11 1   
    11    8   16 1   
    12    9   10 2   
    13    9   19 1   
    14   11   12 1   
    15   11   17 1   
    16   11   18 1   
    17   12   13 1   
    18   12   14 1   
    19   19   20 1   
    20   19   28 1   
    21   20   21 1   
    22   20   23 1   
    23   20   29 1   
    24   21   22 2   
    25   21   41 1   
    26   23   24 1   
    27   23   30 1   
    28   23   31 1   
    29   24   25 1   
    30   24   32 1   
    31   24   33 1   
    32   25   26 1   
    33   25   34 1   
    34   25   35 1   
    35   26   27 1   
    36   26   36 1   
    37   26   37 1   
    38   27   38 1   
    39   27   39 1   
    40   27   40 1   
    41   41   42 1   
    42   41   49 1   
    43   42   43 1   
    44   42   45 1   
    45   42   50 1   
    46   43   44 2   
    47   43   53 1   
    48   45   46 1   
    49   45   51 1   
    50   45   52 1   
    51   46   47 1   
    52   46   48 1   
    53   53   54 1   
    54   53   57 1   
    55   54   55 1   
    56   54   58 1   
    57   54   59 1   
    58   55   56 2   
    59   55   60 1   
    60   60   61 1   
    61   60   68 1   
    62   61   62 1   
    63   61   64 1   
    64   61   69 1   
    65   62   63 2   
    66   62   74 1   
    67   64   65 1   
    68   64   70 1   
    69   64   71 1   
    70   65   66 1   
    71   65   67 2   
    72   66   72 1   
    73   66   73 1   
    74   74   75 1   
    75   74   78 1   
    76   75   76 1   
    77   75   79 1   
    78   75   80 1   
    79   76   77 2   
    80   76   81 1   
    81   81   82 1   
    82   81   93 1   
    83   82   83 1   
    84   82   85 1   
    85   82   94 1   
    86   83   84 2   
    87   83  102 1   
    88   85   86 1   
    89   85   95 1   
    90   85   96 1   
    91   86   87 ar  
    92   86   88 ar  
    93   87   89 ar  
    94   87   97 1   
    95   88   90 ar  
    96   88   98 1   
    97   89   91 ar  
    98   89   99 1   
    99   90   91 ar  
   100   90  100 1   
   101   91   92 1   
   102   92  101 1   
   103  102  103 1   
   104  102  110 1   
   105  103  104 1   
   106  103  106 1   
   107  103  111 1   
   108  104  105 2   
   109  104  121 1   
   110  106  107 1   
   111  106  108 1   
   112  106  112 1   
   113  107  109 1   
   114  107  113 1   
   115  107  114 1   
   116  108  115 1   
   117  108  116 1   
   118  108  117 1   
   119  109  118 1   
   120  109  119 1   
   121  109  120 1   
   122  121  122 1   
   123  121  127 1   
   124  122  123 1   
   125  122  125 1   
   126  122  128 1   
   127  123  124 2   
   128  123  132 1   
   129  125  126 1   
   130  125  129 1   
   131  125  130 1   
   132  126  131 1   
   133  132  133 1   
   134  132  137 1   
   135  133  134 1   
   136  133  136 1   
   137  133  138 1   
   138  134  135 2   
   139  134  142 1   
   140  136  139 1   
   141  136  140 1   
   142  136  141 1   
   143  142  143 1   
   144  142  147 1   
   145  143  144 1   
   146  143  146 1   
   147  143  148 1   
   148  144  145 2   
   149  144  152 1   
   150  146  149 1   
   151  146  150 1   
   152  146  151 1   
   153  152  153 1   
   154  152  161 1   
   155  153  154 1   
   156  153  156 1   
   157  153  162 1   
   158  154  155 2   
   159  154  167 1   
   160  156  157 1   
   161  156  163 1   
   162  156  164 1   
   163  157  158 1   
   164  157  165 1   
   165  157  166 1   
   166  158  159 1   
   167  158  160 1   
   168  167  168 1   
   169  167  172 1   
   170  168  169 1   
   171  168  170 1   
   172  168  171 1   
   173  174  175 1   
   174  174  176 1   
   175  177  178 1   
   176  177  179 1   
@<TRIPOS>SUBSTRUCTURE
     1 MOL         1 TEMP              0 ****  ****    0 ROOT
