@<TRIPOS>MOLECULE
MOL
  186   183     1     0     0
SMALL
resp


@<TRIPOS>ATOM
      1 C1         -0.5440    2.3610    6.3750 c3        1 MOL     -0.382612
      2 C2         -0.7150    2.2890    4.8750 c         1 MOL      0.802425
      3 O1          0.0360    2.7430    4.0610 o         1 MOL     -0.590293
      4 H1         -0.0120    1.4760    6.7230 hc        1 MOL      0.084985
      5 H2          0.0280    3.2530    6.6340 hc        1 MOL      0.084985
      6 H3         -1.5230    2.4060    6.8520 hc        1 MOL      0.084985
      7 N1         -1.7790    1.6320    4.4150 n         1 MOL     -0.663229
      8 C3         -2.2360    1.6510    2.9850 c3        1 MOL      0.069780
      9 C4         -2.6180    3.0820    2.4850 c         1 MOL      0.655747
     10 O2         -3.4240    3.7540    3.2130 o         1 MOL     -0.591824
     11 C5         -3.3900    0.6350    2.7970 c3        1 MOL     -0.024113
     12 C6         -4.2050    0.7030    1.5360 c         1 MOL      0.504795
     13 O3         -5.4400    0.4430    1.5360 o         1 MOL     -0.613064
     14 O4         -3.5640    0.9060    0.4880 o         1 MOL     -0.613064
     15 H4         -2.3390    1.1470    5.0960 hn        1 MOL      0.311452
     16 H5         -1.3360    1.3540    2.4380 h1        1 MOL      0.127757
     17 H6         -4.0230    0.6890    3.6870 hc        1 MOL      0.000151
     18 H7         -2.9790   -0.3750    2.8040 hc        1 MOL      0.000151
     19 N2         -2.0200    3.5490    1.4100 n         1 MOL     -0.478294
     20 C7         -2.3550    4.8680    0.8060 c3        1 MOL      0.059382
     21 C8         -3.5350    4.7210   -0.1790 c         1 MOL      0.362698
     22 O5         -4.5370    5.4780    0.0760 o         1 MOL     -0.593129
     23 C9         -1.1080    5.4790    0.1400 c3        1 MOL      0.184964
     24 C10        -0.2190    6.2010    1.2540 c3        1 MOL      0.108173
     25 C11        -1.5760    6.4880   -0.8780 c3        1 MOL     -0.171456
     26 C12         1.1570    6.5690    0.7000 c3        1 MOL     -0.192108
     27 H8         -1.6180    2.8930    0.7460 hn        1 MOL      0.177063
     28 H9         -2.6030    5.5180    1.6470 h1        1 MOL      0.044531
     29 H10        -0.5260    4.6820   -0.3210 hc        1 MOL      0.006319
     30 H11        -0.0040    5.6120    2.1470 hc        1 MOL     -0.012563
     31 H12        -0.6280    7.1370    1.6440 hc        1 MOL     -0.012563
     32 H13        -0.7500    7.1190   -1.2250 hc        1 MOL      0.017806
     33 H14        -2.0360    6.0070   -1.7450 hc        1 MOL      0.017806
     34 H15        -2.2560    7.1110   -0.3110 hc        1 MOL      0.017806
     35 H16         1.6540    7.0750    1.5320 hc        1 MOL      0.031966
     36 H17         1.7500    5.6990    0.4270 hc        1 MOL      0.031966
     37 H18         1.2050    7.2270   -0.1630 hc        1 MOL      0.031966
     38 N3         -3.5570    3.8390   -1.1470 n         1 MOL     -0.089554
     39 C13        -4.5150    3.9980   -2.1440 c3        1 MOL      0.128279
     40 C14        -5.8780    3.2870   -1.8490 c         1 MOL      0.416056
     41 O6         -6.6680    3.1400   -2.7830 o         1 MOL     -0.524498
     42 C15        -3.9260    3.7020   -3.4880 c3        1 MOL     -0.257012
     43 C16        -3.5850    2.1990   -3.6870 c         1 MOL      0.706655
     44 O7         -3.5320    1.4180   -2.7170 o         1 MOL     -0.699201
     45 O8         -3.2350    1.7570   -4.8060 o         1 MOL     -0.699201
     46 H19        -2.8420    3.1310   -1.2600 hn        1 MOL      0.182091
     47 H20        -4.7620    5.0590   -2.2050 h1        1 MOL      0.029791
     48 H21        -3.0280    4.3040   -3.5640 hc        1 MOL      0.055049
     49 H22        -4.6260    4.1080   -4.2130 hc        1 MOL      0.055049
     50 N4         -6.0020    2.7580   -0.6300 n         1 MOL     -0.367322
     51 C17        -7.2830    2.2480   -0.1420 c3        1 MOL     -0.171834
     52 C18        -7.6820    0.9980   -0.8570 c         1 MOL      0.449900
     53 O9         -8.9060    0.7500   -0.9210 o         1 MOL     -0.602224
     54 H23        -5.2310    2.7730    0.0240 hn        1 MOL      0.349684
     55 H24        -8.1420    2.9120   -0.2980 h1        1 MOL      0.111730
     56 H25        -7.3250    2.0530    0.9300 h1        1 MOL      0.111730
     57 N5         -6.7970    0.1110   -1.2300 n         1 MOL     -0.061763
     58 C19        -7.0920   -1.2440   -1.6290 c3        1 MOL     -0.146346
     59 C20        -7.2410   -2.2140   -0.4150 c         1 MOL      0.503914
     60 O10        -7.8050   -3.3220   -0.5290 o         1 MOL     -0.561871
     61 C21        -6.2050   -1.7450   -2.7720 c3        1 MOL      0.003762
     62 C22        -4.7160   -1.8500   -2.3880 c         1 MOL      0.792429
     63 O11        -3.8530   -1.9660   -3.3110 o         1 MOL     -0.787267
     64 O12        -4.4590   -1.6640   -1.2050 o         1 MOL     -0.787267
     65 H26        -5.8640    0.4420   -1.4170 hn        1 MOL      0.162951
     66 H27        -8.0790   -1.3520   -2.0780 h1        1 MOL      0.077192
     67 H28        -6.3050   -1.1250   -3.6690 hc        1 MOL      0.016637
     68 H29        -6.4540   -2.7170   -3.2060 hc        1 MOL      0.016637
     69 N6         -6.7540   -1.7330    0.7940 n         1 MOL     -0.254858
     70 C23        -6.7480   -2.4950    2.0550 c3        1 MOL      0.046083
     71 C24        -5.5300   -3.3770    2.1840 c         1 MOL      0.534603
     72 O13        -5.5470   -4.3050    2.9740 o         1 MOL     -0.612102
     73 H30        -6.1890   -0.9000    0.6920 hn        1 MOL      0.157612
     74 H31        -7.6250   -3.1270    2.1880 h1        1 MOL      0.023973
     75 H32        -6.7080   -1.7740    2.8770 h1        1 MOL      0.023973
     76 N7         -4.4590   -3.0490    1.4210 n         1 MOL     -0.286447
     77 C25        -3.1890   -3.6840    1.4180 c3        1 MOL      0.212777
     78 C26        -2.0430   -2.7870    1.4090 c         1 MOL      0.238450
     79 O14        -1.9880   -1.8260    0.6490 o         1 MOL     -0.630339
     80 C27        -3.1940   -4.5890    0.1660 c3        1 MOL     -0.097202
     81 C28        -3.8860   -5.9510    0.5170 c3        1 MOL     -0.101501
     82 C29        -4.4830   -6.6220   -0.6850 c         1 MOL      0.675203
     83 N8         -5.3910   -7.5530   -0.4740 n         1 MOL     -0.807241
     84 O15        -4.2980   -6.2340   -1.8080 o         1 MOL     -0.548926
     85 H33        -4.7310   -2.2990    0.7900 hn        1 MOL      0.292355
     86 H34        -3.1150   -4.2890    2.3150 h1        1 MOL     -0.008462
     87 H35        -2.2400   -4.9060   -0.2370 hc        1 MOL      0.022539
     88 H36        -3.7520   -4.0930   -0.6350 hc        1 MOL      0.022539
     89 H37        -4.7340   -5.7700    1.1690 hc        1 MOL      0.023119
     90 H38        -3.3320   -6.7070    1.0770 hc        1 MOL      0.023119
     91 H39        -5.6740   -7.7970    0.4710 hn        1 MOL      0.347395
     92 H40        -5.8740   -8.0340   -1.2110 hn        1 MOL      0.347395
     93 N9         -0.9400   -3.1160    2.0970 n         1 MOL     -0.043858
     94 C30         0.2920   -2.3450    2.1830 c3        1 MOL     -0.296412
     95 C31         1.3470   -2.9330    1.2380 c         1 MOL      0.394168
     96 O16         2.0060   -3.9260    1.5940 o         1 MOL     -0.553653
     97 C32         0.8350   -2.1830    3.6690 c3        1 MOL      0.344085
     98 C33         1.9980   -1.1450    3.8270 c3        1 MOL     -0.288601
     99 C34        -0.3820   -1.7860    4.4750 c3        1 MOL     -0.288601
    100 H41        -0.9040   -4.0480    2.4730 hn        1 MOL      0.202518
    101 H42         0.0350   -1.3140    1.9400 h1        1 MOL      0.228033
    102 H43         1.2640   -3.1150    4.0590 hc        1 MOL     -0.047644
    103 H44         2.8710   -1.5680    3.3400 hc        1 MOL      0.051914
    104 H45         1.7070   -0.2280    3.3240 hc        1 MOL      0.051914
    105 H46         2.2770   -1.1390    4.8780 hc        1 MOL      0.051914
    106 H47        -1.0450   -2.6400    4.5910 hc        1 MOL      0.051914
    107 H48         0.0240   -1.4780    5.4410 hc        1 MOL      0.051914
    108 H49        -0.9030   -0.9330    4.0470 hc        1 MOL      0.051914
    109 N10         1.5130   -2.3310    0.0750 n         1 MOL     -0.162635
    110 C35         2.6970   -2.5470   -0.7820 c3        1 MOL     -0.081614
    111 C36         3.9980   -2.0910   -0.0750 c         1 MOL      0.354221
    112 O17         3.9120   -1.1890    0.7850 o         1 MOL     -0.254265
    113 C37         2.4220   -1.8230   -2.1160 c3        1 MOL     -0.211071
    114 C38         3.4670   -2.1820   -3.1130 c         1 MOL      0.609644
    115 N11         3.0990   -3.1350   -3.9860 n         1 MOL     -0.686575
    116 O18         4.5600   -1.6100   -3.2120 o         1 MOL     -0.497717
    117 H50         0.9480   -1.5070   -0.0800 hn        1 MOL      0.300306
    118 H51         2.8050   -3.6010   -1.0350 h1        1 MOL      0.063981
    119 H52         2.3430   -0.7460   -1.9850 hc        1 MOL      0.088555
    120 H53         1.4700   -2.1810   -2.4960 hc        1 MOL      0.088555
    121 H54         2.1760   -3.5360   -3.9220 hn        1 MOL      0.323219
    122 H55         3.7690   -3.6290   -4.5500 hn        1 MOL      0.323219
    123 N12         5.2120   -2.6170   -0.4250 n         1 MOL     -0.442694
    124 C39         6.4990   -2.1340    0.1510 c3        1 MOL      0.113694
    125 C40         6.6590   -0.6190    0.0410 c         1 MOL      0.753998
    126 O19         7.0030    0.1130    0.9760 o         1 MOL     -0.529798
    127 C41         7.6520   -2.7660   -0.5230 c3        1 MOL     -0.159851
    128 C42         8.9620   -2.1500    0.0140 ca        1 MOL      0.251383
    129 C43         9.2400   -2.1250    1.3780 ca        1 MOL     -0.382172
    130 C44         9.9210   -1.6500   -0.8440 ca        1 MOL     -0.382172
    131 C45        10.4380   -1.5310    1.8490 ca        1 MOL     -0.088671
    132 C46        11.1050   -1.0720   -0.4040 ca        1 MOL     -0.088671
    133 C47        11.3990   -1.1140    0.9610 ca        1 MOL      0.205503
    134 O20        12.5440   -0.5700    1.3720 oh        1 MOL     -0.500825
    135 H56         5.1980   -3.4260   -1.0280 hn        1 MOL      0.277438
    136 H57         6.5500   -2.3010    1.2310 h1        1 MOL      0.040704
    137 H58         7.5820   -2.5830   -1.5970 hc        1 MOL      0.052080
    138 H59         7.8060   -3.8330   -0.3590 hc        1 MOL      0.052080
    139 H60         8.5540   -2.5940    2.0740 ha        1 MOL      0.174718
    140 H61         9.6600   -1.6770   -1.8840 ha        1 MOL      0.174718
    141 H62        10.6060   -1.3250    2.9000 ha        1 MOL      0.116484
    142 H63        11.7800   -0.6430   -1.1320 ha        1 MOL      0.116484
    143 H64        13.0890   -0.2510    0.6560 ho        1 MOL      0.371963
    144 N13         6.2510   -0.0050   -1.0960 n         1 MOL     -0.476123
    145 C48         6.3110    1.4250   -1.3020 c3        1 MOL     -0.123168
    146 C49         5.3710    2.1710   -0.2540 c         1 MOL      0.341691
    147 O21         5.7320    3.3030    0.1060 o         1 MOL     -0.518083
    148 C50         5.9870    1.7190   -2.7590 c3        1 MOL      0.068534
    149 C51         7.2010    1.3040   -3.5600 c3        1 MOL     -0.130893
    150 C52         6.9460    1.6370   -5.0590 c         1 MOL      0.673327
    151 O22         6.9440    2.7930   -5.4790 o         1 MOL     -0.733804
    152 O23         6.6860    0.6260   -5.7410 o         1 MOL     -0.733804
    153 H65         5.9570   -0.5640   -1.8790 hn        1 MOL      0.291571
    154 H66         7.3190    1.7000   -0.9900 h1        1 MOL      0.117451
    155 H67         5.7960    2.7820   -2.9240 hc        1 MOL      0.043678
    156 H68         5.1010    1.2150   -3.1320 hc        1 MOL      0.043678
    157 H69         7.3540    0.2350   -3.4750 hc        1 MOL     -0.016793
    158 H70         8.1020    1.8320   -3.2400 hc        1 MOL     -0.016793
    159 N14         4.3140    1.5220    0.2150 n         1 MOL     -0.055319
    160 C53         3.5350    2.0940    1.1960 c3        1 MOL      0.055788
    161 C54         3.9810    1.7910    2.5910 c         1 MOL      0.380807
    162 O24         3.6820    2.5720    3.5240 o         1 MOL     -0.582951
    163 C55         2.0520    1.6450    1.0550 c3        1 MOL      0.120831
    164 C56         1.5400    1.9350   -0.3860 c3        1 MOL     -0.258359
    165 C57         0.1890    1.2770   -0.5880 c         1 MOL      0.865321
    166 O25        -0.8260    1.9780   -0.8560 o         1 MOL     -0.783723
    167 O26         0.0390    0.0640   -0.3450 o         1 MOL     -0.783723
    168 H71         4.2690    0.5160    0.0760 hn        1 MOL      0.016438
    169 H72         3.5270    3.1810    1.1510 h1        1 MOL      0.051080
    170 H73         1.3940    2.0750    1.8030 hc        1 MOL      0.022549
    171 H74         1.9370    0.5740    1.2250 hc        1 MOL      0.022549
    172 H75         2.2050    1.5590   -1.1650 hc        1 MOL      0.045085
    173 H76         1.4890    3.0210   -0.4240 hc        1 MOL      0.045085
    174 N15         4.7040    0.7330    2.8360 n         1 MOL      0.101071
    175 C58         5.3840    0.4750    4.0880 c3        1 MOL     -0.230596
    176 H77         5.7200   -0.5620    4.1110 h1        1 MOL      0.077703
    177 H78         6.2460    1.1370    4.1770 h1        1 MOL      0.077703
    178 H79         4.7000    0.6540    4.9180 h1        1 MOL      0.077703
    179 H80         4.8750    0.1580    2.0240 hn        1 MOL     -0.061085
    180 Ca1        -2.2770   -0.2870   -1.4780 Ca        1 MOL      1.653699
    181 O27        -1.0630   -2.8400   -1.8940 oh        1 MOL     -0.786708
    182 H81        -1.6980   -3.5550   -1.7900 ho        1 MOL      0.399994
    183 H82        -0.5720   -3.0730   -2.6840 ho        1 MOL      0.399994
    184 O28        -0.7860   -0.5330   -3.6250 oh        1 MOL     -0.786708
    185 H83        -0.3590    0.0530   -4.2540 ho        1 MOL      0.399994
    186 H84        -1.3500   -1.0860   -4.1530 ho        1 MOL      0.399994
@<TRIPOS>BOND
     1    1    2 1   
     2    1    4 1   
     3    1    5 1   
     4    1    6 1   
     5    2    3 2   
     6    2    7 1   
     7    7    8 1   
     8    7   15 1   
     9    8    9 1   
    10    8   11 1   
    11    8   16 1   
    12    9   10 2   
    13    9   19 1   
    14   11   12 1   
    15   11   17 1   
    16   11   18 1   
    17   12   13 1   
    18   12   14 1   
    19   19   20 1   
    20   19   27 1   
    21   20   21 1   
    22   20   23 1   
    23   20   28 1   
    24   21   22 2   
    25   21   38 1   
    26   23   24 1   
    27   23   25 1   
    28   23   29 1   
    29   24   26 1   
    30   24   30 1   
    31   24   31 1   
    32   25   32 1   
    33   25   33 1   
    34   25   34 1   
    35   26   35 1   
    36   26   36 1   
    37   26   37 1   
    38   38   39 1   
    39   38   46 1   
    40   39   40 1   
    41   39   42 1   
    42   39   47 1   
    43   40   41 2   
    44   40   50 1   
    45   42   43 1   
    46   42   48 1   
    47   42   49 1   
    48   43   44 1   
    49   43   45 1   
    50   50   51 1   
    51   50   54 1   
    52   51   52 1   
    53   51   55 1   
    54   51   56 1   
    55   52   53 2   
    56   52   57 1   
    57   57   58 1   
    58   57   65 1   
    59   58   59 1   
    60   58   61 1   
    61   58   66 1   
    62   59   60 2   
    63   59   69 1   
    64   61   62 1   
    65   61   67 1   
    66   61   68 1   
    67   62   63 1   
    68   62   64 1   
    69   69   70 1   
    70   69   73 1   
    71   70   71 1   
    72   70   74 1   
    73   70   75 1   
    74   71   72 2   
    75   71   76 1   
    76   76   77 1   
    77   76   85 1   
    78   77   78 1   
    79   77   80 1   
    80   77   86 1   
    81   78   79 2   
    82   78   93 1   
    83   80   81 1   
    84   80   87 1   
    85   80   88 1   
    86   81   82 1   
    87   81   89 1   
    88   81   90 1   
    89   82   83 1   
    90   82   84 2   
    91   83   91 1   
    92   83   92 1   
    93   93   94 1   
    94   93  100 1   
    95   94   95 1   
    96   94   97 1   
    97   94  101 1   
    98   95   96 2   
    99   95  109 1   
   100   97   98 1   
   101   97   99 1   
   102   97  102 1   
   103   98  103 1   
   104   98  104 1   
   105   98  105 1   
   106   99  106 1   
   107   99  107 1   
   108   99  108 1   
   109  109  110 1   
   110  109  117 1   
   111  110  111 1   
   112  110  113 1   
   113  110  118 1   
   114  111  112 2   
   115  111  123 1   
   116  113  114 1   
   117  113  119 1   
   118  113  120 1   
   119  114  115 1   
   120  114  116 2   
   121  115  121 1   
   122  115  122 1   
   123  123  124 1   
   124  123  135 1   
   125  124  125 1   
   126  124  127 1   
   127  124  136 1   
   128  125  126 2   
   129  125  144 1   
   130  127  128 1   
   131  127  137 1   
   132  127  138 1   
   133  128  129 ar  
   134  128  130 ar  
   135  129  131 ar  
   136  129  139 1   
   137  130  132 ar  
   138  130  140 1   
   139  131  133 ar  
   140  131  141 1   
   141  132  133 ar  
   142  132  142 1   
   143  133  134 1   
   144  134  143 1   
   145  144  145 1   
   146  144  153 1   
   147  145  146 1   
   148  145  148 1   
   149  145  154 1   
   150  146  147 2   
   151  146  159 1   
   152  148  149 1   
   153  148  155 1   
   154  148  156 1   
   155  149  150 1   
   156  149  157 1   
   157  149  158 1   
   158  150  151 1   
   159  150  152 1   
   160  159  160 1   
   161  159  168 1   
   162  160  161 1   
   163  160  163 1   
   164  160  169 1   
   165  161  162 2   
   166  161  174 1   
   167  163  164 1   
   168  163  170 1   
   169  163  171 1   
   170  164  165 1   
   171  164  172 1   
   172  164  173 1   
   173  165  166 1   
   174  165  167 1   
   175  174  175 1   
   176  174  179 1   
   177  175  176 1   
   178  175  177 1   
   179  175  178 1   
   180  181  182 1   
   181  181  183 1   
   182  184  185 1   
   183  184  186 1   
@<TRIPOS>SUBSTRUCTURE
     1 MOL         1 TEMP              0 ****  ****    0 ROOT
