@<TRIPOS>MOLECULE
MOL
  189   185     1     0     0
SMALL
resp


@<TRIPOS>ATOM
      1 C1         -0.1130    3.0100    4.9960 c3        1 MOL     -0.287418
      2 C2         -0.5830    2.8610    3.5270 c         1 MOL      0.639969
      3 O1         -0.0120    3.3950    2.6290 o         1 MOL     -0.584032
      4 H1          0.3750    3.9760    5.1230 hc        1 MOL      0.076223
      5 H2         -0.9740    2.9480    5.6610 hc        1 MOL      0.076223
      6 H3          0.5900    2.2130    5.2360 hc        1 MOL      0.076223
      7 N1         -1.6860    2.1180    3.2380 n         1 MOL     -0.540976
      8 C3         -2.2520    1.7290    1.9800 c3        1 MOL      0.461044
      9 C4         -3.0480    2.8750    1.3450 c         1 MOL      0.159859
     10 O2         -4.2480    3.0110    1.5040 o         1 MOL     -0.491213
     11 C5         -3.2400    0.6430    2.3480 c3        1 MOL     -0.414441
     12 C6         -3.9640    0.0520    1.1470 c         1 MOL      0.851955
     13 O3         -4.9860   -0.6830    1.3570 o         1 MOL     -0.660689
     14 O4         -3.4780    0.2180   -0.0110 o         1 MOL     -0.660689
     15 H4         -2.2090    1.7500    4.0310 hn        1 MOL      0.285131
     16 H5         -1.5020    1.4340    1.2500 h1        1 MOL     -0.084425
     17 H6         -3.9600    1.0470    3.0630 hc        1 MOL      0.078321
     18 H7         -2.6810   -0.1840    2.8080 hc        1 MOL      0.078321
     19 N2         -2.4130    3.7130    0.5840 n         1 MOL     -0.015561
     20 C7         -2.9670    4.9430    0.0030 c3        1 MOL      0.004081
     21 C8         -3.7690    4.7250   -1.2450 c         1 MOL      0.409580
     22 O5         -4.4010    5.6800   -1.7070 o         1 MOL     -0.552640
     23 C9         -1.8650    6.0180   -0.1530 c3        1 MOL      0.119857
     24 C10        -0.9660    6.2560    1.0040 c3        1 MOL      0.096477
     25 C11        -1.6190    6.6010    2.3420 c3        1 MOL     -0.385114
     26 C12        -2.5720    7.8380    2.1890 c3        1 MOL      0.263779
     27 N3         -3.0900    8.3120    3.5190 n4        1 MOL     -0.488237
     28 H8         -1.4270    3.5430    0.4290 hn        1 MOL      0.205448
     29 H9         -3.8480    5.3000    0.5430 h1        1 MOL      0.052166
     30 H10        -2.3430    6.9510   -0.4550 hc        1 MOL     -0.028951
     31 H11        -1.2420    5.6680   -0.9720 hc        1 MOL     -0.028951
     32 H12        -0.2360    7.0010    0.6900 hc        1 MOL      0.031324
     33 H13        -0.3130    5.4000    1.1300 hc        1 MOL      0.031324
     34 H14        -0.7930    6.8620    2.9920 hc        1 MOL      0.103136
     35 H15        -2.1330    5.7070    2.6980 hc        1 MOL      0.103136
     36 H16        -3.3480    7.6530    1.4630 hx        1 MOL      0.030384
     37 H17        -1.9630    8.5750    1.6560 hx        1 MOL      0.030384
     38 H18        -3.7960    9.0380    3.5600 hn        1 MOL      0.354986
     39 H19        -3.4430    7.5240    4.0420 hn        1 MOL      0.354986
     40 H20        -2.3210    8.7570    3.9920 hn        1 MOL      0.354986
     41 N4         -3.8880    3.4820   -1.8360 n         1 MOL     -0.150357
     42 C13        -4.8010    3.2050   -2.9200 c3        1 MOL      0.001513
     43 C14        -6.0190    2.3300   -2.4130 c         1 MOL      0.435236
     44 O6         -6.8880    2.0630   -3.2650 o         1 MOL     -0.499031
     45 C15        -4.1030    2.5680   -4.1360 c3        1 MOL     -0.239288
     46 C16        -2.6720    2.0980   -3.9450 c         1 MOL      0.760176
     47 O7         -2.3620    1.1380   -3.2030 o         1 MOL     -0.629130
     48 O8         -1.8180    2.6410   -4.6610 o         1 MOL     -0.629130
     49 H21        -3.1680    2.8200   -1.5820 hn        1 MOL      0.083443
     50 H22        -5.3220    4.0840   -3.2790 h1        1 MOL      0.106148
     51 H23        -4.0520    3.3240   -4.9130 hc        1 MOL      0.065572
     52 H24        -4.7680    1.7640   -4.4540 hc        1 MOL      0.065572
     53 N5         -6.1470    1.9730   -1.1440 n         1 MOL     -0.258795
     54 C17        -7.2990    1.2250   -0.6280 c3        1 MOL     -0.142628
     55 C18        -7.6430   -0.1910   -1.1660 c         1 MOL      0.437335
     56 O9         -8.7540   -0.5100   -1.5760 o         1 MOL     -0.539698
     57 H25        -5.3710    2.0010   -0.5090 hn        1 MOL      0.182756
     58 H26        -8.1410    1.8480   -0.9320 h1        1 MOL      0.096884
     59 H27        -7.2470    1.2150    0.4590 h1        1 MOL      0.096884
     60 N6         -6.6360   -1.1000   -1.2720 n         1 MOL     -0.110569
     61 C19        -6.7220   -2.4490   -1.8760 c3        1 MOL      0.042732
     62 C20        -6.7710   -3.5260   -0.7330 c         1 MOL      0.389002
     63 O10        -7.4220   -4.5400   -0.9820 o         1 MOL     -0.530469
     64 C21        -5.6120   -2.7440   -2.9290 c3        1 MOL     -0.173949
     65 C22        -4.1880   -2.5670   -2.4980 c         1 MOL      0.862406
     66 O11        -3.8520   -2.6550   -1.3200 o         1 MOL     -0.825392
     67 O12        -3.3860   -2.1010   -3.3100 o         1 MOL     -0.825392
     68 H28        -5.7720   -0.7630   -0.8830 hn        1 MOL      0.063302
     69 H29        -7.6830   -2.5680   -2.3870 h1        1 MOL      0.090357
     70 H30        -5.8360   -2.0650   -3.7580 hc        1 MOL      0.059670
     71 H31        -5.7700   -3.7520   -3.3110 hc        1 MOL      0.059670
     72 N7         -6.1670   -3.2410    0.4690 n         1 MOL     -0.167458
     73 C23        -6.1900   -4.0600    1.6900 c3        1 MOL     -0.032286
     74 C24        -4.7780   -4.5810    2.0100 c         1 MOL      0.440400
     75 O13        -4.5600   -5.5120    2.8720 o         1 MOL     -0.583719
     76 H32        -5.6870   -2.3450    0.5010 hn        1 MOL      0.120764
     77 H33        -6.8310   -4.9360    1.6040 h1        1 MOL      0.075056
     78 H34        -6.5110   -3.4220    2.5130 h1        1 MOL      0.075056
     79 N8         -3.7210   -4.0550    1.3690 n         1 MOL     -0.062316
     80 C25        -2.3350   -4.5320    1.4230 c3        1 MOL     -0.291640
     81 C26        -1.3810   -3.4020    1.4080 c         1 MOL      0.538342
     82 O14        -1.6320   -2.3340    0.7540 o         1 MOL     -0.604219
     83 C27        -2.0440   -5.4150    0.2180 c3        1 MOL      0.463774
     84 C28        -2.8650   -6.7590    0.2110 c3        1 MOL     -0.572576
     85 O15        -2.3630   -4.8050   -1.0410 oh        1 MOL     -0.617257
     86 H35        -3.9580   -3.3160    0.7120 hn        1 MOL      0.135273
     87 H36        -2.2410   -5.1160    2.3420 h1        1 MOL      0.131976
     88 H37        -0.9880   -5.6890    0.1960 h1        1 MOL     -0.014857
     89 H38        -3.0100   -4.1490   -0.7620 ho        1 MOL      0.396626
     90 H39        -3.8980   -6.4470    0.0440 hc        1 MOL      0.156933
     91 H40        -2.4970   -7.3140   -0.6470 hc        1 MOL      0.156933
     92 H41        -2.5360   -7.3320    1.0750 hc        1 MOL      0.156933
     93 N9         -0.3370   -3.5430    2.1690 n         1 MOL     -0.358360
     94 C29         0.8280   -2.6190    2.3420 c3        1 MOL      0.007866
     95 C30         2.0740   -3.1550    1.6420 c         1 MOL      0.285639
     96 O16         2.7210   -4.1640    2.1130 o         1 MOL     -0.524809
     97 C31         1.1500   -2.3940    3.8600 c3        1 MOL      0.287118
     98 C32        -0.0220   -1.8880    4.6620 c3        1 MOL      0.245062
     99 C33         2.3370   -1.3320    3.9540 c3        1 MOL     -0.543881
    100 C34         0.0430   -1.9000    6.2250 c3        1 MOL     -0.098811
    101 H42        -0.2810   -4.4730    2.5630 hn        1 MOL      0.245385
    102 H43         0.4610   -1.7310    1.8230 h1        1 MOL      0.127305
    103 H44         1.4660   -3.3180    4.3350 hc        1 MOL     -0.029257
    104 H45        -0.8480   -2.5470    4.4020 hc        1 MOL     -0.094729
    105 H46        -0.3120   -0.9040    4.2930 hc        1 MOL     -0.094729
    106 H47         2.3030   -0.7090    3.0580 hc        1 MOL      0.112597
    107 H48         2.1250   -0.7810    4.8710 hc        1 MOL      0.112597
    108 H49         3.2740   -1.8420    4.1480 hc        1 MOL      0.112597
    109 H50        -0.7950   -1.3610    6.6670 hc        1 MOL      0.014503
    110 H51         0.1490   -2.8920    6.6500 hc        1 MOL      0.014503
    111 H52         0.8960   -1.3440    6.6090 hc        1 MOL      0.014503
    112 N10         2.4990   -2.5670    0.5210 n         1 MOL     -0.034436
    113 C35         3.8510   -2.8050   -0.0630 c3        1 MOL      0.007648
    114 C36         5.0330   -2.1560    0.6810 c         1 MOL      0.361640
    115 O17         4.8280   -1.3390    1.5830 o         1 MOL     -0.373768
    116 C37         3.8950   -2.5150   -1.5460 c3        1 MOL      0.091995
    117 C38         2.9100   -3.2210   -2.4080 c3        1 MOL      0.035083
    118 O18         3.7210   -1.1390   -1.7610 oh        1 MOL     -0.386946
    119 H53         1.9600   -1.7620    0.2230 hn        1 MOL      0.167987
    120 H54         4.0530   -3.8710    0.0530 h1        1 MOL      0.072831
    121 H55         4.8880   -2.7240   -1.9230 h1        1 MOL     -0.006665
    122 H56         3.7880   -0.9420   -2.7070 ho        1 MOL      0.317485
    123 H57         2.7190   -2.6850   -3.3350 hc        1 MOL     -0.020125
    124 H58         3.3450   -4.1620   -2.7580 hc        1 MOL     -0.020125
    125 H59         1.9230   -3.3490   -1.9680 hc        1 MOL     -0.020125
    126 N11         6.3340   -2.4370    0.3760 n         1 MOL     -0.246651
    127 C39         7.5350   -1.7130    0.8440 c3        1 MOL     -0.266570
    128 C40         7.5610   -0.2290    0.3740 c         1 MOL      0.241608
    129 O19         8.0730    0.6220    1.1350 o         1 MOL     -0.445474
    130 C41         8.8620   -2.3370    0.4250 c3        1 MOL      0.451997
    131 C42         9.3470   -3.4680    1.2820 c3        1 MOL     -0.572610
    132 O20         8.7610   -2.8170   -0.8770 oh        1 MOL     -0.623579
    133 H60         6.5020   -3.2120   -0.2580 hn        1 MOL      0.240640
    134 H61         7.4360   -1.7150    1.9260 h1        1 MOL      0.203690
    135 H62         9.6270   -1.5600    0.3680 h1        1 MOL      0.023066
    136 H63         9.2050   -2.1860   -1.4480 ho        1 MOL      0.386403
    137 H64        10.3990   -3.6540    1.0610 hc        1 MOL      0.164273
    138 H65         9.0810   -3.1890    2.2920 hc        1 MOL      0.164273
    139 H66         8.8830   -4.4150    0.9910 hc        1 MOL      0.164273
    140 N12         7.0350    0.0810   -0.8090 n         1 MOL     -0.075852
    141 C43         6.8520    1.4430   -1.2910 c3        1 MOL     -0.075589
    142 C44         5.9870    2.2670   -0.3630 c         1 MOL      0.360795
    143 O21         6.3570    3.3540    0.1410 o         1 MOL     -0.485292
    144 C45         6.2580    1.3900   -2.7110 c3        1 MOL     -0.466634
    145 C46         7.1900    0.7240   -3.7990 c3        1 MOL      0.264468
    146 C47         8.3870    1.5970   -4.1060 c3        1 MOL     -0.202684
    147 C48         9.0270    1.0640   -5.3370 c3        1 MOL     -0.100929
    148 N13        10.4120    1.5990   -5.5500 n4        1 MOL     -0.097204
    149 H67         6.6670   -0.6820   -1.3590 hn        1 MOL      0.165772
    150 H68         7.8570    1.8730   -1.3360 h1        1 MOL      0.091409
    151 H69         6.0130    2.4010   -3.0350 hc        1 MOL      0.156348
    152 H70         5.3480    0.7900   -2.7730 hc        1 MOL      0.156348
    153 H71         6.5990    0.5260   -4.7030 hc        1 MOL     -0.028126
    154 H72         7.5640   -0.2470   -3.4680 hc        1 MOL     -0.028126
    155 H73         9.0780    1.6630   -3.2670 hc        1 MOL      0.115283
    156 H74         7.9150    2.5280   -4.3960 hc        1 MOL      0.115283
    157 H75         8.3630    1.2900   -6.1730 hx        1 MOL      0.113126
    158 H76         9.1660    0.0010   -5.1500 hx        1 MOL      0.113126
    159 H77        11.1040    1.2670   -4.8990 hn        1 MOL      0.201486
    160 H78        10.8590    1.2820   -6.3980 hn        1 MOL      0.201486
    161 H79        10.4990    2.6030   -5.6870 hn        1 MOL      0.201486
    162 N14         4.8960    1.6090    0.0640 n         1 MOL      0.100683
    163 C49         3.8430    2.2540    0.8520 c3        1 MOL     -0.282845
    164 C50         4.2910    2.4110    2.3560 c         1 MOL      0.416214
    165 O22         4.0030    3.4020    3.0680 o         1 MOL     -0.527462
    166 C51         2.5350    1.4730    0.8690 c3        1 MOL      0.131671
    167 C52         1.9080    1.5730   -0.5310 c3        1 MOL     -0.398030
    168 C53         0.6860    0.6120   -0.6420 c         1 MOL      0.820026
    169 O23         0.6700   -0.6450   -0.7860 o         1 MOL     -0.771038
    170 O24        -0.4280    1.1710   -0.8400 o         1 MOL     -0.771038
    171 H80         4.7420    0.7380   -0.4130 hn        1 MOL      0.015074
    172 H81         3.5340    3.2190    0.4410 h1        1 MOL      0.136294
    173 H82         1.8760    2.0230    1.5420 hc        1 MOL      0.048025
    174 H83         2.7230    0.4170    1.0650 hc        1 MOL      0.048025
    175 H84         2.5630    1.3550   -1.3720 hc        1 MOL      0.111275
    176 H85         1.6240    2.6290   -0.5780 hc        1 MOL      0.111275
    177 N15         5.1120    1.4350    2.8910 n         1 MOL     -0.036982
    178 C54         5.7640    1.4710    4.2020 c3        1 MOL     -0.245402
    179 H86         6.2120    2.4520    4.3570 h1        1 MOL      0.094473
    180 H87         5.0260    1.2810    4.9810 h1        1 MOL      0.094473
    181 H88         6.5410    0.7070    4.2430 h1        1 MOL      0.094473
    182 H89         5.2860    0.6580    2.2690 hn        1 MOL      0.115693
    183 Ca1        -1.8120   -0.8930   -1.5730 Ca        1 MOL      1.723784
    184 O25         0.4860   -0.7610   -3.8170 oh        1 MOL     -0.772581
    185 H90         1.0040   -0.9660   -3.0430 ho        1 MOL      0.388767
    186 H91         0.6920   -1.4630   -4.4440 ho        1 MOL      0.388767
    187 O26        -0.7670   -3.2120   -2.3430 oh        1 MOL     -0.772581
    188 H92        -0.7900   -3.5890   -3.2190 ho        1 MOL      0.388767
    189 H93        -1.2560   -3.8310   -1.7970 ho        1 MOL      0.388767
@<TRIPOS>BOND
     1    1    2 1   
     2    1    4 1   
     3    1    5 1   
     4    1    6 1   
     5    2    3 2   
     6    2    7 1   
     7    7    8 1   
     8    7   15 1   
     9    8    9 1   
    10    8   11 1   
    11    8   16 1   
    12    9   10 2   
    13    9   19 1   
    14   11   12 1   
    15   11   17 1   
    16   11   18 1   
    17   12   13 1   
    18   12   14 1   
    19   19   20 1   
    20   19   28 1   
    21   20   21 1   
    22   20   23 1   
    23   20   29 1   
    24   21   22 2   
    25   21   41 1   
    26   23   24 1   
    27   23   30 1   
    28   23   31 1   
    29   24   25 1   
    30   24   32 1   
    31   24   33 1   
    32   25   26 1   
    33   25   34 1   
    34   25   35 1   
    35   26   27 1   
    36   26   36 1   
    37   26   37 1   
    38   27   38 1   
    39   27   39 1   
    40   27   40 1   
    41   41   42 1   
    42   41   49 1   
    43   42   43 1   
    44   42   45 1   
    45   42   50 1   
    46   43   44 2   
    47   43   53 1   
    48   45   46 1   
    49   45   51 1   
    50   45   52 1   
    51   46   47 1   
    52   46   48 1   
    53   53   54 1   
    54   53   57 1   
    55   54   55 1   
    56   54   58 1   
    57   54   59 1   
    58   55   56 2   
    59   55   60 1   
    60   60   61 1   
    61   60   68 1   
    62   61   62 1   
    63   61   64 1   
    64   61   69 1   
    65   62   63 2   
    66   62   72 1   
    67   64   65 1   
    68   64   70 1   
    69   64   71 1   
    70   65   66 1   
    71   65   67 1   
    72   72   73 1   
    73   72   76 1   
    74   73   74 1   
    75   73   77 1   
    76   73   78 1   
    77   74   75 2   
    78   74   79 1   
    79   79   80 1   
    80   79   86 1   
    81   80   81 1   
    82   80   83 1   
    83   80   87 1   
    84   81   82 2   
    85   81   93 1   
    86   83   84 1   
    87   83   85 1   
    88   83   88 1   
    89   84   90 1   
    90   84   91 1   
    91   84   92 1   
    92   85   89 1   
    93   93   94 1   
    94   93  101 1   
    95   94   95 1   
    96   94   97 1   
    97   94  102 1   
    98   95   96 2   
    99   95  112 1   
   100   97   98 1   
   101   97   99 1   
   102   97  103 1   
   103   98  100 1   
   104   98  104 1   
   105   98  105 1   
   106   99  106 1   
   107   99  107 1   
   108   99  108 1   
   109  100  109 1   
   110  100  110 1   
   111  100  111 1   
   112  112  113 1   
   113  112  119 1   
   114  113  114 1   
   115  113  116 1   
   116  113  120 1   
   117  114  115 2   
   118  114  126 1   
   119  116  117 1   
   120  116  118 1   
   121  116  121 1   
   122  117  123 1   
   123  117  124 1   
   124  117  125 1   
   125  118  122 1   
   126  126  127 1   
   127  126  133 1   
   128  127  128 1   
   129  127  130 1   
   130  127  134 1   
   131  128  129 2   
   132  128  140 1   
   133  130  131 1   
   134  130  132 1   
   135  130  135 1   
   136  131  137 1   
   137  131  138 1   
   138  131  139 1   
   139  132  136 1   
   140  140  141 1   
   141  140  149 1   
   142  141  142 1   
   143  141  144 1   
   144  141  150 1   
   145  142  143 2   
   146  142  162 1   
   147  144  145 1   
   148  144  151 1   
   149  144  152 1   
   150  145  146 1   
   151  145  153 1   
   152  145  154 1   
   153  146  147 1   
   154  146  155 1   
   155  146  156 1   
   156  147  148 1   
   157  147  157 1   
   158  147  158 1   
   159  148  159 1   
   160  148  160 1   
   161  148  161 1   
   162  162  163 1   
   163  162  171 1   
   164  163  164 1   
   165  163  166 1   
   166  163  172 1   
   167  164  165 2   
   168  164  177 1   
   169  166  167 1   
   170  166  173 1   
   171  166  174 1   
   172  167  168 1   
   173  167  175 1   
   174  167  176 1   
   175  168  169 1   
   176  168  170 1   
   177  177  178 1   
   178  177  182 1   
   179  178  179 1   
   180  178  180 1   
   181  178  181 1   
   182  184  185 1   
   183  184  186 1   
   184  187  188 1   
   185  187  189 1   
@<TRIPOS>SUBSTRUCTURE
     1 MOL         1 TEMP              0 ****  ****    0 ROOT
