@<TRIPOS>MOLECULE
MOL
  179   176     1     0     0
SMALL
resp


@<TRIPOS>ATOM
      1 C1          0.7540    3.1330    6.7670 c3        1 MOL     -0.376113
      2 C2          0.9390    2.6850    5.3290 c         1 MOL      0.722731
      3 O1          1.9790    2.0950    5.0210 o         1 MOL     -0.589996
      4 H1         -0.2580    3.5180    6.9000 hc        1 MOL      0.098366
      5 H2          0.9110    2.2860    7.4350 hc        1 MOL      0.098366
      6 H3          1.4740    3.9180    6.9990 hc        1 MOL      0.098366
      7 N1         -0.1000    2.7800    4.4870 n         1 MOL     -0.519110
      8 C3         -0.1650    2.3840    3.0890 c3        1 MOL     -0.086460
      9 C4          0.0000    3.6590    2.1750 c         1 MOL      0.695046
     10 O2         -0.4460    4.6970    2.4830 o         1 MOL     -0.542100
     11 C5         -1.5230    1.7630    2.8560 c3        1 MOL      0.016238
     12 C6         -1.7300    1.1240    1.5430 c         1 MOL      0.418878
     13 O3         -0.8610    1.1080    0.7140 o         1 MOL     -0.573801
     14 O4         -2.9250    0.8270    1.2530 o         1 MOL     -0.573801
     15 H4         -0.9750    3.1350    4.8420 hn        1 MOL      0.294346
     16 H5          0.6120    1.6440    2.9020 h1        1 MOL      0.093693
     17 H6         -2.3240    2.4590    3.1000 hc        1 MOL      0.060369
     18 H7         -1.7270    0.9880    3.6050 hc        1 MOL      0.060369
     19 N2          0.7580    3.5350    1.0570 n         1 MOL     -0.452578
     20 C7          1.0620    4.6660    0.1850 c3        1 MOL     -0.062007
     21 C8         -0.1830    5.2100   -0.6330 c         1 MOL      0.423460
     22 O5         -0.1900    6.3270   -1.1620 o         1 MOL     -0.567219
     23 C9          2.2800    4.4010   -0.6550 c3        1 MOL      0.083914
     24 C10         2.7830    5.4480   -1.6940 c3        1 MOL      0.108123
     25 C11         3.9850    4.9820   -2.4940 c3        1 MOL      0.060271
     26 C12         4.4690    5.9550   -3.6150 c3        1 MOL     -0.076989
     27 N3          3.4790    6.0680   -4.7210 n4        1 MOL     -0.239502
     28 H8          1.0370    2.6060    0.7820 hn        1 MOL      0.273011
     29 H9          1.4600    5.4970    0.7640 h1        1 MOL      0.111695
     30 H10         2.0380    3.5490   -1.2790 hc        1 MOL     -0.015417
     31 H11         3.1140    4.1740    0.0130 hc        1 MOL     -0.015417
     32 H12         2.9990    6.4600   -1.3560 hc        1 MOL     -0.040505
     33 H13         1.9600    5.4940   -2.3960 hc        1 MOL     -0.040505
     34 H14         3.8270    3.9960   -2.9270 hc        1 MOL      0.023173
     35 H15         4.8040    4.7970   -1.8030 hc        1 MOL      0.023173
     36 H16         5.4170    5.6270   -4.0430 hx        1 MOL      0.103601
     37 H17         4.5910    6.9690   -3.2370 hx        1 MOL      0.103601
     38 H18         3.3030    5.2080   -5.2130 hn        1 MOL      0.297230
     39 H19         2.6200    6.4020   -4.3330 hn        1 MOL      0.297230
     40 H20         3.7370    6.7960   -5.3720 hn        1 MOL      0.297230
     41 N4         -1.2850    4.4600   -0.6230 n         1 MOL     -0.146918
     42 C13        -2.6650    4.9450   -0.9800 c3        1 MOL      0.162432
     43 C14        -3.7850    4.6010    0.0020 c         1 MOL      0.374186
     44 O6         -4.8290    5.2610   -0.0140 o         1 MOL     -0.513705
     45 C15        -3.0160    4.5180   -2.4160 c3        1 MOL     -0.488078
     46 C16        -2.9410    3.0310   -2.6910 c         1 MOL      0.808172
     47 O7         -2.6870    2.7290   -3.8880 o         1 MOL     -0.660397
     48 O8         -2.9480    2.1500   -1.7630 o         1 MOL     -0.660397
     49 H21        -1.2150    3.4770   -0.3970 hn        1 MOL      0.231670
     50 H22        -2.6730    6.0250   -0.8560 h1        1 MOL      0.076354
     51 H23        -2.2190    4.9400   -3.0270 hc        1 MOL      0.130918
     52 H24        -3.9760    4.9070   -2.7340 hc        1 MOL      0.130918
     53 N5         -3.6290    3.5730    0.8320 n         1 MOL      0.044262
     54 C17        -4.7040    3.2030    1.8370 c3        1 MOL     -0.006913
     55 C18        -5.8310    2.4740    1.0660 c         1 MOL      0.388568
     56 O9         -6.9900    2.7730    1.2140 o         1 MOL     -0.543703
     57 H25        -2.9080    2.8590    0.7510 hn        1 MOL     -0.431286
     58 H26        -5.0830    4.1260    2.2940 h1        1 MOL      0.069658
     59 H27        -4.3720    2.6740    2.7270 h1        1 MOL      0.069658
     60 N6         -5.4740    1.5490    0.2150 n         1 MOL      0.010306
     61 C19        -6.5470    0.8850   -0.5360 c3        1 MOL     -0.205444
     62 C20        -7.0880   -0.4180    0.0460 c         1 MOL      0.481027
     63 O10        -8.1270   -0.8700   -0.3610 o         1 MOL     -0.522242
     64 C21        -6.0190    0.6990   -1.9790 c3        1 MOL      0.044256
     65 C22        -5.2500   -0.5660   -2.0290 c         1 MOL      0.315257
     66 N7         -5.7060   -1.5130   -2.7820 n         1 MOL     -0.671765
     67 O11        -4.3410   -0.8290   -1.2140 o         1 MOL     -0.377448
     68 H28        -4.5150    1.2640    0.1030 hn        1 MOL      0.116568
     69 H29        -7.4020    1.5340   -0.6790 h1        1 MOL      0.151653
     70 H30        -5.2380    1.3520   -2.3720 hc        1 MOL      0.035059
     71 H31        -6.8480    0.7880   -2.6870 hc        1 MOL      0.035059
     72 H32        -6.4080   -1.3600   -3.4880 hn        1 MOL      0.370085
     73 H33        -5.1100   -2.3200   -2.6580 hn        1 MOL      0.370085
     74 N8         -6.2900   -0.9500    0.9710 n         1 MOL     -0.226120
     75 C23        -6.5870   -2.2110    1.6090 c3        1 MOL      0.010711
     76 C24        -5.4490   -3.2100    1.8570 c         1 MOL      0.520268
     77 O12        -5.6410   -4.1020    2.6750 o         1 MOL     -0.563085
     78 H34        -5.4270   -0.5020    1.2660 hn        1 MOL      0.164468
     79 H35        -7.3250   -2.7400    1.0140 h1        1 MOL      0.052960
     80 H36        -7.0290   -1.9990    2.5850 h1        1 MOL      0.052960
     81 N9         -4.3110   -3.1060    1.1540 n         1 MOL     -0.313650
     82 C25        -3.1210   -3.8770    1.5410 c3        1 MOL      0.069734
     83 C26        -1.8960   -3.1020    1.2150 c         1 MOL      0.380258
     84 O13        -1.9720   -2.0830    0.5280 o         1 MOL     -0.458231
     85 C27        -3.1970   -5.3440    0.9580 c3        1 MOL     -0.266086
     86 C28        -3.0630   -5.4250   -0.5750 ca        1 MOL      0.127051
     87 C29        -1.7790   -5.3860   -1.0850 ca        1 MOL     -0.124613
     88 C30        -4.1660   -5.5210   -1.4090 ca        1 MOL     -0.124613
     89 C31        -1.6330   -5.4540   -2.5090 ca        1 MOL     -0.343674
     90 C32        -4.0580   -5.6330   -2.7870 ca        1 MOL     -0.343674
     91 C33        -2.8040   -5.6420   -3.3210 ca        1 MOL      0.399068
     92 O14        -2.6460   -5.7570   -4.6970 oh        1 MOL     -0.505490
     93 H37        -4.1620   -2.4840    0.3770 hn        1 MOL      0.175889
     94 H38        -3.0660   -3.9920    2.6200 h1        1 MOL      0.095848
     95 H39        -4.1540   -5.7040    1.3370 hc        1 MOL      0.095412
     96 H40        -2.4030   -5.9530    1.3990 hc        1 MOL      0.095412
     97 H41        -0.9190   -5.2790   -0.4370 ha        1 MOL      0.148955
     98 H42        -5.1480   -5.6940   -0.9780 ha        1 MOL      0.148955
     99 H43        -0.6550   -5.3470   -2.9510 ha        1 MOL      0.183564
    100 H44        -4.9770   -5.7320   -3.3560 ha        1 MOL      0.183564
    101 H45        -1.7400   -5.9930   -4.8970 ho        1 MOL      0.353581
    102 N10        -0.7960   -3.6330    1.7380 n         1 MOL     -0.409121
    103 C34         0.5520   -2.9950    1.7260 c3        1 MOL      0.154265
    104 C35         1.5670   -3.8760    0.9850 c         1 MOL      0.510891
    105 O15         1.3820   -5.1090    1.0640 o         1 MOL     -0.594949
    106 C36         0.9940   -2.6130    3.1690 c3        1 MOL      0.027373
    107 C37        -0.0730   -1.7550    3.8320 c3        1 MOL      0.192348
    108 C38         2.3380   -1.8590    3.0500 c3        1 MOL     -0.125266
    109 C39         0.2180   -1.2580    5.2780 c3        1 MOL     -0.228502
    110 H46        -1.0000   -4.3900    2.3630 hn        1 MOL      0.272304
    111 H47         0.4420   -2.1570    1.0450 h1        1 MOL     -0.003699
    112 H48         1.1420   -3.5390    3.7420 hc        1 MOL      0.004839
    113 H49        -0.9530   -2.3770    3.9160 hc        1 MOL     -0.032681
    114 H50        -0.3090   -0.8850    3.2170 hc        1 MOL     -0.032681
    115 H51         2.6110   -1.4020    3.9950 hc        1 MOL      0.031447
    116 H52         3.0690   -2.6270    2.8150 hc        1 MOL      0.031447
    117 H53         2.3300   -1.0740    2.2870 hc        1 MOL      0.031447
    118 H54         0.7790   -0.3210    5.2450 hc        1 MOL      0.051278
    119 H55        -0.7920   -0.9830    5.5520 hc        1 MOL      0.051278
    120 H56         0.6310   -2.0680    5.8860 hc        1 MOL      0.051278
    121 N11         2.5050   -3.3390    0.2470 n         1 MOL     -0.159410
    122 C40         3.7210   -4.0320   -0.0950 c3        1 MOL     -0.019499
    123 C41         4.9190   -3.2500    0.3860 c         1 MOL      0.327232
    124 O16         4.7730   -2.1040    0.6810 o         1 MOL     -0.208164
    125 C42         3.7980   -4.2320   -1.6620 c3        1 MOL      0.048268
    126 O17         3.9250   -2.9420   -2.2250 oh        1 MOL     -0.489592
    127 H57         2.5360   -2.3360    0.0890 hn        1 MOL      0.079079
    128 H58         3.6900   -5.0110    0.3830 h1        1 MOL      0.092290
    129 H59         2.8770   -4.6310   -2.0970 h1        1 MOL      0.034649
    130 H60         4.6270   -4.8990   -1.9210 h1        1 MOL      0.034649
    131 H61         4.0830   -3.0860   -3.1530 ho        1 MOL      0.396069
    132 N12         6.0870   -3.8300    0.3600 n         1 MOL     -0.374677
    133 C43         7.3170   -3.1840    0.8520 c3        1 MOL      0.102744
    134 C44         7.6330   -1.8590    0.2240 c         1 MOL      0.500985
    135 O18         7.9610   -0.8760    0.9110 o         1 MOL     -0.528493
    136 C45         8.4040   -4.2180    0.5490 c3        1 MOL     -0.427857
    137 H62         6.1570   -4.8180    0.1630 hn        1 MOL      0.294402
    138 H63         7.2000   -3.0260    1.9290 h1        1 MOL      0.092087
    139 H64         8.5580   -4.3740   -0.5190 hc        1 MOL      0.127042
    140 H65         9.3500   -3.8110    0.9220 hc        1 MOL      0.127042
    141 H66         8.0430   -5.1690    0.9390 hc        1 MOL      0.127042
    142 N13         7.3960   -1.7590   -1.0860 n         1 MOL     -0.324936
    143 C46         7.5590   -0.5600   -1.9290 c3        1 MOL      0.019353
    144 C47         6.5510    0.5920   -1.6120 c         1 MOL      0.476606
    145 O19         6.7190    1.6790   -2.1650 o         1 MOL     -0.587652
    146 C48         7.4640   -0.9800   -3.4350 c3        1 MOL     -0.208290
    147 H67         7.1310   -2.5950   -1.5820 hn        1 MOL      0.226991
    148 H68         8.5620   -0.2170   -1.6680 h1        1 MOL      0.101890
    149 H69         7.9330   -0.2830   -4.1300 hc        1 MOL      0.068993
    150 H70         7.9340   -1.9470   -3.6220 hc        1 MOL      0.068993
    151 H71         6.4050   -1.0780   -3.6820 hc        1 MOL      0.068993
    152 N14         5.6000    0.3200   -0.7720 n         1 MOL     -0.057019
    153 C49         4.5660    1.2540   -0.2410 c3        1 MOL      0.040951
    154 C50         4.7620    1.5590    1.2620 c         1 MOL      0.399044
    155 O20         4.7740    2.7200    1.6570 o         1 MOL     -0.489621
    156 C51         3.1640    0.6360   -0.4050 c3        1 MOL     -0.048892
    157 C52         2.6770    0.6000   -1.8790 c3        1 MOL      0.002754
    158 C53         1.1660    0.4160   -2.0070 c         1 MOL      0.719755
    159 O21         0.6830   -0.6770   -1.7490 o         1 MOL     -0.753419
    160 O22         0.3530    1.3440   -2.2720 o         1 MOL     -0.753419
    161 H72         5.5170   -0.6140   -0.4020 hn        1 MOL     -0.070167
    162 H73         4.7050    2.2360   -0.6980 h1        1 MOL      0.072339
    163 H74         2.5070    1.2580    0.2160 hc        1 MOL      0.047181
    164 H75         3.2350   -0.4080   -0.0980 hc        1 MOL      0.047181
    165 H76         3.1910   -0.1940   -2.4250 hc        1 MOL     -0.035250
    166 H77         2.9640    1.5200   -2.3770 hc        1 MOL     -0.035250
    167 N15         5.0910    0.4910    2.0900 n         1 MOL     -0.125940
    168 C54         5.5830    0.5750    3.4460 c3        1 MOL     -0.198833
    169 H78         5.9250    1.5900    3.6460 h1        1 MOL      0.097864
    170 H79         4.7830    0.3190    4.1400 h1        1 MOL      0.097864
    171 H80         6.4130   -0.1200    3.5760 h1        1 MOL      0.097864
    172 H81         4.8790   -0.4480    1.8020 hn        1 MOL      0.079571
    173 Ca1        -1.7930    0.0300   -1.2980 Ca        1 MOL      1.669861
    174 O23        -2.1910    0.3100   -3.8300 oh        1 MOL     -0.822636
    175 H82        -2.4130    1.2150   -4.0460 ho        1 MOL      0.375624
    176 H83        -2.1480   -0.1340   -4.6740 ho        1 MOL      0.375624
    177 O24        -2.1870   -2.4650   -2.2680 oh        1 MOL     -0.822636
    178 H84        -1.8910   -2.5580   -3.1710 ho        1 MOL      0.375624
    179 H85        -2.0280   -3.3230   -1.8670 ho        1 MOL      0.375624
@<TRIPOS>BOND
     1    1    2 1   
     2    1    4 1   
     3    1    5 1   
     4    1    6 1   
     5    2    3 2   
     6    2    7 1   
     7    7    8 1   
     8    7   15 1   
     9    8    9 1   
    10    8   11 1   
    11    8   16 1   
    12    9   10 2   
    13    9   19 1   
    14   11   12 1   
    15   11   17 1   
    16   11   18 1   
    17   12   13 1   
    18   12   14 1   
    19   19   20 1   
    20   19   28 1   
    21   20   21 1   
    22   20   23 1   
    23   20   29 1   
    24   21   22 2   
    25   21   41 1   
    26   23   24 1   
    27   23   30 1   
    28   23   31 1   
    29   24   25 1   
    30   24   32 1   
    31   24   33 1   
    32   25   26 1   
    33   25   34 1   
    34   25   35 1   
    35   26   27 1   
    36   26   36 1   
    37   26   37 1   
    38   27   38 1   
    39   27   39 1   
    40   27   40 1   
    41   41   42 1   
    42   41   49 1   
    43   42   43 1   
    44   42   45 1   
    45   42   50 1   
    46   43   44 2   
    47   43   53 1   
    48   45   46 1   
    49   45   51 1   
    50   45   52 1   
    51   46   47 1   
    52   46   48 1   
    53   53   54 1   
    54   53   57 1   
    55   54   55 1   
    56   54   58 1   
    57   54   59 1   
    58   55   56 2   
    59   55   60 1   
    60   60   61 1   
    61   60   68 1   
    62   61   62 1   
    63   61   64 1   
    64   61   69 1   
    65   62   63 2   
    66   62   74 1   
    67   64   65 1   
    68   64   70 1   
    69   64   71 1   
    70   65   66 1   
    71   65   67 2   
    72   66   72 1   
    73   66   73 1   
    74   74   75 1   
    75   74   78 1   
    76   75   76 1   
    77   75   79 1   
    78   75   80 1   
    79   76   77 2   
    80   76   81 1   
    81   81   82 1   
    82   81   93 1   
    83   82   83 1   
    84   82   85 1   
    85   82   94 1   
    86   83   84 2   
    87   83  102 1   
    88   85   86 1   
    89   85   95 1   
    90   85   96 1   
    91   86   87 ar  
    92   86   88 ar  
    93   87   89 ar  
    94   87   97 1   
    95   88   90 ar  
    96   88   98 1   
    97   89   91 ar  
    98   89   99 1   
    99   90   91 ar  
   100   90  100 1   
   101   91   92 1   
   102   92  101 1   
   103  102  103 1   
   104  102  110 1   
   105  103  104 1   
   106  103  106 1   
   107  103  111 1   
   108  104  105 2   
   109  104  121 1   
   110  106  107 1   
   111  106  108 1   
   112  106  112 1   
   113  107  109 1   
   114  107  113 1   
   115  107  114 1   
   116  108  115 1   
   117  108  116 1   
   118  108  117 1   
   119  109  118 1   
   120  109  119 1   
   121  109  120 1   
   122  121  122 1   
   123  121  127 1   
   124  122  123 1   
   125  122  125 1   
   126  122  128 1   
   127  123  124 2   
   128  123  132 1   
   129  125  126 1   
   130  125  129 1   
   131  125  130 1   
   132  126  131 1   
   133  132  133 1   
   134  132  137 1   
   135  133  134 1   
   136  133  136 1   
   137  133  138 1   
   138  134  135 2   
   139  134  142 1   
   140  136  139 1   
   141  136  140 1   
   142  136  141 1   
   143  142  143 1   
   144  142  147 1   
   145  143  144 1   
   146  143  146 1   
   147  143  148 1   
   148  144  145 2   
   149  144  152 1   
   150  146  149 1   
   151  146  150 1   
   152  146  151 1   
   153  152  153 1   
   154  152  161 1   
   155  153  154 1   
   156  153  156 1   
   157  153  162 1   
   158  154  155 2   
   159  154  167 1   
   160  156  157 1   
   161  156  163 1   
   162  156  164 1   
   163  157  158 1   
   164  157  165 1   
   165  157  166 1   
   166  158  159 1   
   167  158  160 1   
   168  167  168 1   
   169  167  172 1   
   170  168  169 1   
   171  168  170 1   
   172  168  171 1   
   173  174  175 1   
   174  174  176 1   
   175  177  178 1   
   176  177  179 1   
@<TRIPOS>SUBSTRUCTURE
     1 MOL         1 TEMP              0 ****  ****    0 ROOT
