@<TRIPOS>MOLECULE
MOL
  189   185     1     0     0
SMALL
resp


@<TRIPOS>ATOM
      1 C1          0.2340    1.7900    5.8040 c3        1 MOL     -0.223641
      2 C2         -0.3000    1.4920    4.3910 c         1 MOL      0.649847
      3 O1          0.4180    1.7840    3.3950 o         1 MOL     -0.587038
      4 H1         -0.2510    2.6840    6.1930 hc        1 MOL      0.063856
      5 H2          0.0190    0.9460    6.4590 hc        1 MOL      0.063856
      6 H3          1.3110    1.9500    5.7600 hc        1 MOL      0.063856
      7 N1         -1.5990    1.1140    4.2290 n         1 MOL     -0.551090
      8 C3         -2.2640    0.9880    2.9600 c3        1 MOL      0.095401
      9 C4         -2.6570    2.4000    2.4390 c         1 MOL      0.429517
     10 O2         -3.7990    2.8820    2.7110 o         1 MOL     -0.479307
     11 C5         -3.4350    0.0120    3.0460 c3        1 MOL     -0.126204
     12 C6         -4.0620   -0.0900    1.6330 c         1 MOL      0.613051
     13 O3         -3.4010    0.2350    0.6490 o         1 MOL     -0.625075
     14 O4         -5.2770   -0.4440    1.6440 o         1 MOL     -0.625075
     15 H4         -2.0050    0.5830    4.9890 hn        1 MOL      0.309968
     16 H5         -1.4730    0.6720    2.2720 h1        1 MOL      0.001009
     17 H6         -4.1630    0.4040    3.7520 hc        1 MOL      0.054114
     18 H7         -3.1670   -0.9950    3.3770 hc        1 MOL      0.054114
     19 N2         -1.7050    3.1720    1.8270 n         1 MOL     -0.106371
     20 C7         -1.7770    4.6650    1.6440 c3        1 MOL     -0.253568
     21 C8         -2.8350    5.1410    0.6650 c         1 MOL      0.522152
     22 O5         -3.2680    6.3040    0.7330 o         1 MOL     -0.582208
     23 C9         -0.3830    5.0570    1.1970 c3        1 MOL      0.010247
     24 C10        -0.2020    6.5670    1.1260 c3        1 MOL     -0.360703
     25 C11         1.2380    6.9670    0.7770 c3        1 MOL     -0.106144
     26 C12         1.3510    8.4450    0.3960 c3        1 MOL      0.059521
     27 N3          0.9950    8.7580   -0.9990 n4        1 MOL     -0.540343
     28 H8         -0.8190    2.8390    1.4760 hn        1 MOL      0.160640
     29 H9         -1.8960    5.1130    2.6350 h1        1 MOL      0.144072
     30 H10        -0.1770    4.6740    0.1980 hc        1 MOL      0.087674
     31 H11         0.3550    4.6230    1.8710 hc        1 MOL      0.087674
     32 H12        -0.3500    6.8730    2.1600 hc        1 MOL      0.149441
     33 H13        -0.8550    7.0970    0.4240 hc        1 MOL      0.149441
     34 H14         1.6510    6.2920    0.0290 hc        1 MOL      0.080139
     35 H15         1.8800    6.8700    1.6590 hc        1 MOL      0.080139
     36 H16         2.3470    8.7480    0.7090 hx        1 MOL      0.094829
     37 H17         0.6230    9.0120    0.9720 hx        1 MOL      0.094829
     38 H18         0.7160    7.9270   -1.4870 hn        1 MOL      0.374223
     39 H19         0.1680    9.3400   -1.0910 hn        1 MOL      0.374223
     40 H20         1.7440    9.2350   -1.4790 hn        1 MOL      0.374223
     41 N4         -3.1850    4.3120   -0.3780 n         1 MOL     -0.312873
     42 C13        -4.2390    4.5230   -1.3720 c3        1 MOL      0.159041
     43 C14        -5.4610    3.7150   -1.0420 c         1 MOL      0.456298
     44 O6         -6.4260    3.9950   -1.7470 o         1 MOL     -0.547854
     45 C15        -3.6170    4.1170   -2.7560 c3        1 MOL     -0.359735
     46 C16        -2.7370    2.8880   -2.7790 c         1 MOL      0.809540
     47 O7         -2.7860    1.9650   -1.9030 o         1 MOL     -0.686048
     48 O8         -1.9290    2.6900   -3.6920 o         1 MOL     -0.686048
     49 H21        -2.6000    3.5060   -0.4930 hn        1 MOL      0.202899
     50 H22        -4.6080    5.5540   -1.3930 h1        1 MOL      0.057171
     51 H23        -2.8950    4.9190   -2.9450 hc        1 MOL      0.079825
     52 H24        -4.3520    4.2270   -3.5620 hc        1 MOL      0.079825
     53 N5         -5.4170    2.7490   -0.1360 n         1 MOL      0.013188
     54 C17        -6.5660    2.2020    0.4610 c3        1 MOL     -0.221333
     55 C18        -7.2790    1.0870   -0.3780 c         1 MOL      0.579016
     56 O9         -8.4830    1.2080   -0.6010 o         1 MOL     -0.561729
     57 H25        -4.5160    2.4400    0.1960 hn        1 MOL     -0.041251
     58 H26        -7.2620    3.0370    0.5490 h1        1 MOL      0.105329
     59 H27        -6.3480    1.6660    1.3870 h1        1 MOL      0.105329
     60 N6         -6.5700    0.0820   -0.8310 n         1 MOL     -0.274932
     61 C19        -7.1190   -1.0110   -1.6870 c3        1 MOL      0.052302
     62 C20        -7.3120   -2.4380   -0.9870 c         1 MOL      0.455134
     63 O10        -8.0040   -3.2790   -1.6020 o         1 MOL     -0.543870
     64 C21        -6.1810   -1.2030   -2.9090 c3        1 MOL     -0.181756
     65 C22        -4.7010   -1.2950   -2.5040 c         1 MOL      0.710559
     66 O11        -4.3690   -1.8800   -1.4560 o         1 MOL     -0.709920
     67 O12        -3.8410   -0.6550   -3.1680 o         1 MOL     -0.709920
     68 H28        -5.5990    0.1000   -0.5620 hn        1 MOL      0.160417
     69 H29        -8.1410   -0.8210   -2.0150 h1        1 MOL      0.095903
     70 H30        -6.3110   -0.3670   -3.5990 hc        1 MOL      0.059627
     71 H31        -6.5220   -2.1090   -3.4140 hc        1 MOL      0.059627
     72 N7         -6.8290   -2.5860    0.2460 n         1 MOL     -0.332242
     73 C23        -6.8580   -3.8180    1.0890 c3        1 MOL     -0.022069
     74 C24        -5.5490   -4.5050    1.0460 c         1 MOL      0.460350
     75 O13        -5.3170   -5.5550    1.6190 o         1 MOL     -0.558329
     76 H32        -6.1460   -1.9120    0.5910 hn        1 MOL      0.221176
     77 H33        -7.6090   -4.5590    0.8100 h1        1 MOL      0.084799
     78 H34        -7.0450   -3.5520    2.1200 h1        1 MOL      0.084799
     79 N8         -4.4800   -3.8480    0.5080 n         1 MOL     -0.145771
     80 C25        -3.1640   -4.5400    0.1960 c3        1 MOL     -0.404268
     81 C26        -1.9690   -3.5500    0.3900 c         1 MOL      0.664994
     82 O14        -2.0800   -2.3060    0.2490 o         1 MOL     -0.618071
     83 C27        -3.0460   -5.2390   -1.2040 c3        1 MOL      0.514669
     84 C28        -4.0230   -6.4380   -1.2420 c3        1 MOL     -0.606733
     85 O15        -3.5530   -4.3420   -2.1420 oh        1 MOL     -0.600036
     86 H35        -4.5750   -2.9040    0.1430 hn        1 MOL      0.244031
     87 H36        -3.1030   -5.4140    0.8450 h1        1 MOL      0.161518
     88 H37        -2.0360   -5.5280   -1.4920 h1        1 MOL      0.003289
     89 H38        -3.9820   -3.6540   -1.6300 ho        1 MOL      0.369578
     90 H39        -4.0320   -7.0230   -2.1620 hc        1 MOL      0.156949
     91 H40        -3.7910   -7.0230   -0.3570 hc        1 MOL      0.156949
     92 H41        -5.0660   -6.1310   -1.1590 hc        1 MOL      0.156949
     93 N9         -0.8220   -4.1510    0.7330 n         1 MOL     -0.540251
     94 C29         0.4830   -3.4660    0.8910 c3        1 MOL      0.090361
     95 C30         1.5240   -3.9340   -0.1550 c         1 MOL      0.470661
     96 O16         1.8110   -5.1360   -0.3140 o         1 MOL     -0.532200
     97 C31         0.9580   -3.5760    2.3730 c3        1 MOL      0.027931
     98 C32         0.0770   -2.7460    3.3030 c3        1 MOL      0.121085
     99 C33         2.4810   -3.3300    2.5310 c3        1 MOL     -0.242430
    100 C34         0.4750   -2.8400    4.7800 c3        1 MOL     -0.339883
    101 H42        -0.8540   -5.1480    0.9230 hn        1 MOL      0.294097
    102 H43         0.2890   -2.4130    0.7130 h1        1 MOL     -0.036493
    103 H44         0.7360   -4.6050    2.6620 hc        1 MOL      0.034987
    104 H45        -0.9730   -3.0430    3.2140 hc        1 MOL      0.026918
    105 H46         0.1920   -1.6880    3.0640 hc        1 MOL      0.026918
    106 H47         2.7400   -2.2940    2.3290 hc        1 MOL      0.052925
    107 H48         2.7080   -3.4290    3.5970 hc        1 MOL      0.052925
    108 H49         3.0000   -4.1220    1.9970 hc        1 MOL      0.052925
    109 H50        -0.3530   -2.5040    5.3970 hc        1 MOL      0.076976
    110 H51         0.6930   -3.9030    4.9150 hc        1 MOL      0.076976
    111 H52         1.3220   -2.1670    4.8890 hc        1 MOL      0.076976
    112 N10         2.0740   -2.9490   -0.8670 n         1 MOL     -0.225327
    113 C35         3.3130   -3.1410   -1.5800 c3        1 MOL     -0.017221
    114 C36         4.6510   -2.9720   -0.7760 c         1 MOL      0.386334
    115 O17         4.6990   -2.4770    0.3530 o         1 MOL     -0.352384
    116 C37         3.3900   -2.1360   -2.7200 c3        1 MOL      0.304553
    117 C38         2.1910   -2.2720   -3.6210 c3        1 MOL     -0.276954
    118 O18         3.2450   -0.8480   -2.2140 oh        1 MOL     -0.578473
    119 H53         1.7390   -2.0100   -0.7370 hn        1 MOL      0.277847
    120 H54         3.3390   -4.1810   -1.9220 h1        1 MOL      0.064553
    121 H55         4.2700   -2.2480   -3.3420 h1        1 MOL      0.020523
    122 H56         2.3540   -0.7950   -1.8440 ho        1 MOL      0.347073
    123 H57         2.0330   -1.4130   -4.2660 hc        1 MOL      0.056598
    124 H58         2.3250   -3.1720   -4.2130 hc        1 MOL      0.056598
    125 H59         1.2540   -2.3240   -3.0740 hc        1 MOL      0.056598
    126 N11         5.8030   -3.3340   -1.3650 n         1 MOL     -0.339114
    127 C39         7.1970   -3.2460   -0.7190 c3        1 MOL     -0.054400
    128 C40         7.5000   -1.8610   -0.1480 c         1 MOL      0.320442
    129 O19         8.0250   -1.8280    0.9940 o         1 MOL     -0.463747
    130 C41         8.2900   -3.5600   -1.7370 c3        1 MOL      0.475142
    131 C42         9.6670   -3.7430   -1.1690 c3        1 MOL     -0.398377
    132 O20         7.9880   -4.6190   -2.5130 oh        1 MOL     -0.656592
    133 H60         5.7730   -3.6840   -2.3090 hn        1 MOL      0.238589
    134 H61         7.1710   -3.9550    0.1110 h1        1 MOL      0.130037
    135 H62         8.4110   -2.6480   -2.3200 h1        1 MOL     -0.072778
    136 H63         8.7350   -5.1390   -2.7820 ho        1 MOL      0.429000
    137 H64         9.5780   -4.5840   -0.4920 hc        1 MOL      0.105163
    138 H65        10.4550   -4.0450   -1.8560 hc        1 MOL      0.105163
    139 H66         9.9990   -2.8710   -0.5910 hc        1 MOL      0.105163
    140 N12         7.1600   -0.7570   -0.8660 n         1 MOL     -0.279901
    141 C43         7.3040    0.7000   -0.4120 c3        1 MOL     -0.016902
    142 C44         6.3450    1.1350    0.6720 c         1 MOL      0.406860
    143 O21         6.6930    1.9220    1.5180 o         1 MOL     -0.528182
    144 C45         7.1270    1.6090   -1.6390 c3        1 MOL     -0.087577
    145 C46         7.3000    3.1000   -1.3690 c3        1 MOL     -0.069887
    146 C47         7.4630    3.9160   -2.6350 c3        1 MOL      0.154924
    147 C48         7.6570    5.3330   -2.1540 c3        1 MOL     -0.014112
    148 N13         7.4000    6.2600   -3.2520 n4        1 MOL     -0.154769
    149 H67         6.7400   -0.7890   -1.7860 hn        1 MOL      0.244773
    150 H68         8.2910    0.6980    0.0390 h1        1 MOL      0.131965
    151 H69         6.1840    1.4050   -2.1230 hc        1 MOL      0.032251
    152 H70         7.9130    1.3780   -2.3580 hc        1 MOL      0.032251
    153 H71         8.2040    3.2550   -0.7720 hc        1 MOL      0.038391
    154 H72         6.4390    3.3200   -0.7350 hc        1 MOL      0.038391
    155 H73         6.5390    3.9830   -3.2100 hc        1 MOL     -0.003081
    156 H74         8.3120    3.6370   -3.2460 hc        1 MOL     -0.003081
    157 H75         8.6900    5.3470   -1.8250 hx        1 MOL      0.077933
    158 H76         7.0090    5.6900   -1.3450 hx        1 MOL      0.077933
    159 H77         7.8660    6.0810   -4.1350 hn        1 MOL      0.211168
    160 H78         6.4210    6.5000   -3.3610 hn        1 MOL      0.211168
    161 H79         7.8070    7.1720   -3.1390 hn        1 MOL      0.211168
    162 N14         5.1810    0.4750    0.7430 n         1 MOL     -0.090285
    163 C49         4.2090    0.6050    1.9070 c3        1 MOL     -0.141108
    164 C50         4.4690   -0.2150    3.0990 c         1 MOL      0.440165
    165 O22         4.2510    0.2450    4.2780 o         1 MOL     -0.557040
    166 C51         2.6930    0.3380    1.4370 c3        1 MOL      0.130690
    167 C52         2.1250    1.3590    0.3830 c3        1 MOL     -0.306807
    168 C53         0.8030    0.8820   -0.2550 c         1 MOL      0.787616
    169 O23        -0.1870    1.6090   -0.3460 o         1 MOL     -0.733132
    170 O24         0.7320   -0.2660   -0.6750 o         1 MOL     -0.733132
    171 H80         5.0200   -0.2990    0.1100 hn        1 MOL      0.074515
    172 H81         4.1520    1.6360    2.2550 h1        1 MOL      0.109089
    173 H82         2.0140    0.1750    2.2780 hc        1 MOL      0.057164
    174 H83         2.7750   -0.6290    0.9500 hc        1 MOL      0.057164
    175 H84         2.8350    1.4900   -0.4340 hc        1 MOL      0.037150
    176 H85         1.8210    2.2700    0.8980 hc        1 MOL      0.037150
    177 N15         5.0920   -1.3890    2.8750 n         1 MOL     -0.065965
    178 C54         5.6050   -2.2760    3.9650 c3        1 MOL     -0.220052
    179 H86         5.2940   -1.8790    4.9320 h1        1 MOL      0.091260
    180 H87         5.2020   -3.2800    3.8380 h1        1 MOL      0.091260
    181 H88         6.6940   -2.3130    3.9220 h1        1 MOL      0.091260
    182 H89         5.2640   -1.6470    1.9150 hn        1 MOL      0.133830
    183 Ca1        -1.9190   -0.2320   -1.2850 Ca        1 MOL      1.783411
    184 O25        -1.3640   -2.6240   -2.7360 oh        1 MOL     -0.836992
    185 H90        -0.8880   -2.5550   -3.5610 ho        1 MOL      0.395276
    186 H91        -2.1250   -3.1760   -2.9450 ho        1 MOL      0.395276
    187 O26        -0.6720    0.2300   -3.5680 oh        1 MOL     -0.836992
    188 H92        -0.2370   -0.2760   -4.2500 ho        1 MOL      0.395276
    189 H93        -0.7700    1.1000   -3.9410 ho        1 MOL      0.395276
@<TRIPOS>BOND
     1    1    2 1   
     2    1    4 1   
     3    1    5 1   
     4    1    6 1   
     5    2    3 2   
     6    2    7 1   
     7    7    8 1   
     8    7   15 1   
     9    8    9 1   
    10    8   11 1   
    11    8   16 1   
    12    9   10 2   
    13    9   19 1   
    14   11   12 1   
    15   11   17 1   
    16   11   18 1   
    17   12   13 1   
    18   12   14 1   
    19   19   20 1   
    20   19   28 1   
    21   20   21 1   
    22   20   23 1   
    23   20   29 1   
    24   21   22 2   
    25   21   41 1   
    26   23   24 1   
    27   23   30 1   
    28   23   31 1   
    29   24   25 1   
    30   24   32 1   
    31   24   33 1   
    32   25   26 1   
    33   25   34 1   
    34   25   35 1   
    35   26   27 1   
    36   26   36 1   
    37   26   37 1   
    38   27   38 1   
    39   27   39 1   
    40   27   40 1   
    41   41   42 1   
    42   41   49 1   
    43   42   43 1   
    44   42   45 1   
    45   42   50 1   
    46   43   44 2   
    47   43   53 1   
    48   45   46 1   
    49   45   51 1   
    50   45   52 1   
    51   46   47 1   
    52   46   48 1   
    53   53   54 1   
    54   53   57 1   
    55   54   55 1   
    56   54   58 1   
    57   54   59 1   
    58   55   56 2   
    59   55   60 1   
    60   60   61 1   
    61   60   68 1   
    62   61   62 1   
    63   61   64 1   
    64   61   69 1   
    65   62   63 2   
    66   62   72 1   
    67   64   65 1   
    68   64   70 1   
    69   64   71 1   
    70   65   66 1   
    71   65   67 1   
    72   72   73 1   
    73   72   76 1   
    74   73   74 1   
    75   73   77 1   
    76   73   78 1   
    77   74   75 2   
    78   74   79 1   
    79   79   80 1   
    80   79   86 1   
    81   80   81 1   
    82   80   83 1   
    83   80   87 1   
    84   81   82 2   
    85   81   93 1   
    86   83   84 1   
    87   83   85 1   
    88   83   88 1   
    89   84   90 1   
    90   84   91 1   
    91   84   92 1   
    92   85   89 1   
    93   93   94 1   
    94   93  101 1   
    95   94   95 1   
    96   94   97 1   
    97   94  102 1   
    98   95   96 2   
    99   95  112 1   
   100   97   98 1   
   101   97   99 1   
   102   97  103 1   
   103   98  100 1   
   104   98  104 1   
   105   98  105 1   
   106   99  106 1   
   107   99  107 1   
   108   99  108 1   
   109  100  109 1   
   110  100  110 1   
   111  100  111 1   
   112  112  113 1   
   113  112  119 1   
   114  113  114 1   
   115  113  116 1   
   116  113  120 1   
   117  114  115 2   
   118  114  126 1   
   119  116  117 1   
   120  116  118 1   
   121  116  121 1   
   122  117  123 1   
   123  117  124 1   
   124  117  125 1   
   125  118  122 1   
   126  126  127 1   
   127  126  133 1   
   128  127  128 1   
   129  127  130 1   
   130  127  134 1   
   131  128  129 2   
   132  128  140 1   
   133  130  131 1   
   134  130  132 1   
   135  130  135 1   
   136  131  137 1   
   137  131  138 1   
   138  131  139 1   
   139  132  136 1   
   140  140  141 1   
   141  140  149 1   
   142  141  142 1   
   143  141  144 1   
   144  141  150 1   
   145  142  143 2   
   146  142  162 1   
   147  144  145 1   
   148  144  151 1   
   149  144  152 1   
   150  145  146 1   
   151  145  153 1   
   152  145  154 1   
   153  146  147 1   
   154  146  155 1   
   155  146  156 1   
   156  147  148 1   
   157  147  157 1   
   158  147  158 1   
   159  148  159 1   
   160  148  160 1   
   161  148  161 1   
   162  162  163 1   
   163  162  171 1   
   164  163  164 1   
   165  163  166 1   
   166  163  172 1   
   167  164  165 2   
   168  164  177 1   
   169  166  167 1   
   170  166  173 1   
   171  166  174 1   
   172  167  168 1   
   173  167  175 1   
   174  167  176 1   
   175  168  169 1   
   176  168  170 1   
   177  177  178 1   
   178  177  182 1   
   179  178  179 1   
   180  178  180 1   
   181  178  181 1   
   182  184  185 1   
   183  184  186 1   
   184  187  188 1   
   185  187  189 1   
@<TRIPOS>SUBSTRUCTURE
     1 MOL         1 TEMP              0 ****  ****    0 ROOT
