@<TRIPOS>MOLECULE
MOL
  172   171     1     0     0
SMALL
resp


@<TRIPOS>ATOM
      1 C1         -0.4740    3.6200    5.8040 c3        1 MOL     -0.348494
      2 C2         -0.8320    3.3050    4.2930 c         1 MOL      0.729085
      3 O1         -0.2710    3.9260    3.4140 o         1 MOL     -0.569492
      4 H1         -0.4070    2.6880    6.3630 hc        1 MOL      0.079586
      5 H2          0.4820    4.1410    5.8510 hc        1 MOL      0.079586
      6 H3         -1.2520    4.2490    6.2380 hc        1 MOL      0.079586
      7 N1         -1.8040    2.4000    4.0580 n         1 MOL     -0.721447
      8 C3         -2.4430    2.1220    2.8100 c3        1 MOL      0.495535
      9 C4         -2.8880    3.5050    2.2490 c         1 MOL      0.518657
     10 O2         -3.8130    4.1360    2.8510 o         1 MOL     -0.619971
     11 C5         -3.5390    1.1190    2.8940 c3        1 MOL     -0.188673
     12 C6         -4.0080    0.5690    1.5570 c         1 MOL      0.650266
     13 O3         -5.0620   -0.0730    1.4670 o         1 MOL     -0.690425
     14 O4         -3.3930    0.9340    0.5510 o         1 MOL     -0.690425
     15 H4         -2.1620    2.0330    4.9200 hn        1 MOL      0.305822
     16 H5         -1.6410    1.7300    2.1790 h1        1 MOL     -0.071468
     17 H6         -4.2770    1.6430    3.5010 hc        1 MOL      0.020125
     18 H7         -3.2020    0.1930    3.3440 hc        1 MOL      0.020125
     19 N2         -2.2410    3.9710    1.1630 n         1 MOL     -0.308993
     20 C7         -2.4890    5.2500    0.4670 c3        1 MOL      0.196381
     21 C8         -3.5330    5.1530   -0.6530 c         1 MOL      0.328393
     22 O5         -4.3610    6.0620   -0.6400 o         1 MOL     -0.563416
     23 C9         -1.1300    5.6950   -0.1030 c3        1 MOL     -0.324936
     24 H8         -1.4680    3.4230    0.7890 hn        1 MOL      0.260322
     25 H9         -2.6950    6.0340    1.1980 h1        1 MOL      0.040558
     26 H10        -0.7690    4.8250   -0.6440 hc        1 MOL      0.075944
     27 H11        -1.1700    6.5740   -0.7490 hc        1 MOL      0.075944
     28 H12        -0.4900    5.9210    0.7520 hc        1 MOL      0.075944
     29 N3         -3.4340    4.2220   -1.6120 n         1 MOL     -0.144272
     30 C10        -4.4450    3.8890   -2.6150 c3        1 MOL     -0.145622
     31 C11        -5.5490    3.0130   -2.1140 c         1 MOL      0.515230
     32 O6         -6.4770    2.9740   -2.8790 o         1 MOL     -0.566603
     33 C12        -3.7390    3.3730   -3.9100 c3        1 MOL      0.092827
     34 C13        -3.0540    2.0740   -3.6590 c         1 MOL      0.652235
     35 O7         -2.7350    1.6540   -2.4750 o         1 MOL     -0.683362
     36 O8         -2.9550    1.3780   -4.6760 o         1 MOL     -0.683362
     37 H13        -2.7700    3.4650   -1.4780 hn        1 MOL      0.162230
     38 H14        -4.8210    4.8940   -2.8400 h1        1 MOL      0.096447
     39 H15        -2.9890    4.1470   -4.1060 hc        1 MOL     -0.031131
     40 H16        -4.4130    3.3560   -4.7590 hc        1 MOL     -0.031131
     41 N4         -5.5430    2.5110   -0.8890 n         1 MOL     -0.093614
     42 C14        -6.8070    2.0200   -0.1990 c3        1 MOL     -0.483085
     43 C15        -7.3890    0.7260   -0.6700 c         1 MOL      0.699683
     44 O9         -8.5920    0.4660   -0.4310 o         1 MOL     -0.615582
     45 H17        -4.6670    2.4500   -0.3920 hn        1 MOL      0.166809
     46 H18        -7.6260    2.6820   -0.5040 h1        1 MOL      0.176775
     47 H19        -6.4740    1.9350    0.8330 h1        1 MOL      0.176775
     48 N5         -6.5650   -0.0630   -1.3230 n         1 MOL     -0.402412
     49 C16        -6.8580   -1.3890   -1.8120 c3        1 MOL      0.057304
     50 C17        -6.9010   -2.5900   -0.7970 c         1 MOL      0.315270
     51 O10        -7.2470   -3.7520   -1.1270 o         1 MOL     -0.519358
     52 C18        -5.9430   -1.6990   -3.0370 c3        1 MOL     -0.468860
     53 C19        -4.6650   -2.2460   -2.5730 c         1 MOL      0.807995
     54 N6         -4.4840   -3.5420   -2.5850 n         1 MOL     -0.799240
     55 O11        -3.9180   -1.5070   -1.9900 o         1 MOL     -0.690185
     56 H20        -5.5960    0.2100   -1.4410 hn        1 MOL      0.282342
     57 H21        -7.8630   -1.4670   -2.2420 h1        1 MOL      0.123784
     58 H22        -5.7080   -0.8100   -3.6310 hc        1 MOL      0.156293
     59 H23        -6.5690   -2.4450   -3.5360 hc        1 MOL      0.156293
     60 H24        -5.1380   -4.1570   -3.0440 hn        1 MOL      0.349919
     61 H25        -3.6570   -3.9370   -2.1610 hn        1 MOL      0.349919
     62 N7         -6.6350   -2.3470    0.5130 n         1 MOL     -0.123856
     63 C20        -6.5610   -3.3820    1.5990 c3        1 MOL     -0.303908
     64 C21        -5.2410   -4.0650    1.7260 c         1 MOL      0.623732
     65 O12        -5.1660   -5.0080    2.5460 o         1 MOL     -0.602964
     66 H26        -6.4870   -1.3990    0.8240 hn        1 MOL      0.250977
     67 H27        -7.3340   -4.1260    1.3920 h1        1 MOL      0.136734
     68 H28        -6.7350   -2.9100    2.5610 h1        1 MOL      0.136734
     69 N8         -4.1580   -3.6090    1.1260 n         1 MOL     -0.301884
     70 C22        -2.8640   -4.2690    1.3940 c3        1 MOL     -0.015004
     71 C23        -1.8110   -3.1970    1.4210 c         1 MOL      0.633160
     72 O13        -2.0460   -2.0720    1.0520 o         1 MOL     -0.505377
     73 C24        -2.4920   -5.4190    0.4150 c3        1 MOL      0.207331
     74 C25        -3.4150   -6.6350    0.5080 c3        1 MOL     -0.434848
     75 O14        -2.4690   -4.8650   -0.8980 oh        1 MOL     -0.488177
     76 H29        -4.1760   -2.8470    0.4680 hn        1 MOL      0.257909
     77 H30        -2.9440   -4.5790    2.4290 h1        1 MOL      0.086945
     78 H31        -1.4680   -5.7070    0.6550 h1        1 MOL      0.052803
     79 H32        -2.4100   -5.6350   -1.4740 ho        1 MOL      0.372849
     80 H33        -2.8510   -7.4750    0.1040 hc        1 MOL      0.119955
     81 H34        -3.7330   -6.8170    1.5410 hc        1 MOL      0.119955
     82 H35        -4.3400   -6.5960   -0.0830 hc        1 MOL      0.119955
     83 N9         -0.5570   -3.5190    1.8490 n         1 MOL     -0.736811
     84 C26         0.7190   -2.6330    1.7240 c3        1 MOL      0.243883
     85 C27         1.5050   -2.9800    0.5100 c         1 MOL      0.484801
     86 O15         1.8100   -4.1330    0.2480 o         1 MOL     -0.571795
     87 C28         1.4390   -2.6710    3.1000 c3        1 MOL      0.009468
     88 C29         0.7420   -1.6890    4.0480 c3        1 MOL      0.034639
     89 C30         2.9550   -2.5070    3.1260 c3        1 MOL     -0.049679
     90 C31         1.2070   -1.7420    5.5160 c3        1 MOL     -0.255903
     91 H36        -0.4860   -4.4060    2.3250 hn        1 MOL      0.305112
     92 H37         0.3180   -1.6200    1.6560 h1        1 MOL      0.021267
     93 H38         1.3770   -3.6460    3.5800 hc        1 MOL      0.008366
     94 H39        -0.3400   -1.6050    3.9560 hc        1 MOL      0.022681
     95 H40         0.9080   -0.6920    3.6380 hc        1 MOL      0.022681
     96 H41         3.4110   -2.8040    4.0650 hc        1 MOL      0.009453
     97 H42         3.4070   -3.2510    2.4590 hc        1 MOL      0.009453
     98 H43         3.1230   -1.4700    2.8300 hc        1 MOL      0.009453
     99 H44         1.1230   -2.7170    5.9950 hc        1 MOL      0.059553
    100 H45         2.2630   -1.4880    5.5610 hc        1 MOL      0.059553
    101 H46         0.5640   -1.0890    6.1050 hc        1 MOL      0.059553
    102 N10         1.8160   -1.9150   -0.3000 n         1 MOL     -0.158301
    103 C32         2.8190   -1.8690   -1.3330 c3        1 MOL      0.026398
    104 C33         4.2480   -1.5440   -0.8580 c         1 MOL      0.371696
    105 O16         4.3610   -1.0770    0.2830 o         1 MOL     -0.400210
    106 C34         2.4610   -0.8430   -2.3920 c3        1 MOL     -0.371875
    107 C35         1.0180   -0.9590   -2.9970 c         1 MOL      0.822619
    108 O17         0.7210   -1.8680   -3.8140 o         1 MOL     -0.712338
    109 O18         0.1590   -0.0700   -2.7460 o         1 MOL     -0.712338
    110 H47         1.4400   -1.0210   -0.0460 hn        1 MOL      0.126833
    111 H48         2.8530   -2.8670   -1.7780 h1        1 MOL      0.040482
    112 H49         3.2130   -1.0070   -3.1600 hc        1 MOL      0.093719
    113 H50         2.5300    0.1450   -1.9300 hc        1 MOL      0.093719
    114 N11         5.2960   -1.6800   -1.6720 n         1 MOL     -0.393879
    115 C36         6.6980   -1.3980   -1.2830 c3        1 MOL      0.202428
    116 C37         6.9660    0.0800   -0.9130 c         1 MOL      0.344953
    117 O19         7.4190    0.3060    0.2190 o         1 MOL     -0.479337
    118 C38         7.7600   -1.9180   -2.3120 c3        1 MOL     -0.387358
    119 C39         9.1420   -1.5790   -1.8250 ca        1 MOL      0.135387
    120 C40         9.7280   -2.3640   -0.8270 ca        1 MOL     -0.128165
    121 C41         9.9570   -0.6310   -2.5000 ca        1 MOL     -0.128165
    122 C42        11.0740   -2.2770   -0.5460 ca        1 MOL     -0.162518
    123 C43        11.3180   -0.4630   -2.1010 ca        1 MOL     -0.162518
    124 C44        11.8760   -1.2490   -1.0910 ca        1 MOL     -0.043719
    125 H51         5.1440   -2.3910   -2.3760 hn        1 MOL      0.282499
    126 H52         6.7930   -1.9150   -0.3270 h1        1 MOL      0.069820
    127 H53         7.4550   -1.3880   -3.2120 hc        1 MOL      0.125901
    128 H54         7.7180   -2.9900   -2.5110 hc        1 MOL      0.125901
    129 H55         9.1450   -3.1700   -0.4210 ha        1 MOL      0.110368
    130 H56         9.5050   -0.0730   -3.3130 ha        1 MOL      0.110368
    131 H57        11.5290   -2.9310    0.1800 ha        1 MOL      0.115612
    132 H58        11.9590    0.1720   -2.6850 ha        1 MOL      0.115612
    133 H59        12.9300   -1.1730   -0.8760 ha        1 MOL      0.088408
    134 N12         6.5750    1.1230   -1.6440 n         1 MOL     -0.094068
    135 C45         6.6230    2.5090   -1.1070 c3        1 MOL     -0.109744
    136 C46         5.9010    2.7270    0.2630 c         1 MOL      0.342555
    137 O20         6.2650    3.6150    1.0070 o         1 MOL     -0.510899
    138 C47         5.8770    3.4160   -2.1080 c3        1 MOL      0.078671
    139 C48         5.4230    2.5320   -3.2510 c3        1 MOL     -0.097504
    140 C49         5.9980    1.0980   -2.9490 c3        1 MOL      0.136623
    141 H60         7.6500    2.8580   -1.1960 h1        1 MOL      0.096149
    142 H61         5.1070    4.0620   -1.6890 hc        1 MOL      0.016345
    143 H62         6.5530    4.1530   -2.5520 hc        1 MOL      0.016345
    144 H63         4.3420    2.5030   -3.0970 hc        1 MOL      0.035812
    145 H64         5.6680    2.8510   -4.2690 hc        1 MOL      0.035812
    146 H65         5.2180    0.3510   -3.1130 h1        1 MOL     -0.025578
    147 H66         6.7770    0.7600   -3.6200 h1        1 MOL     -0.025578
    148 N13         4.8790    1.9560    0.6430 n         1 MOL     -0.164916
    149 C50         4.1050    2.1090    1.9180 c3        1 MOL     -0.098514
    150 C51         4.7030    1.2140    3.0220 c         1 MOL      0.438547
    151 O21         4.6260    1.5160    4.2210 o         1 MOL     -0.600830
    152 C52         2.6550    1.6870    1.5890 c3        1 MOL      0.219378
    153 C53         1.9810    2.3580    0.3470 c3        1 MOL     -0.278182
    154 C54         0.5810    1.6930    0.0870 c         1 MOL      0.668284
    155 O22         0.3730    0.4590    0.3190 o         1 MOL     -0.692659
    156 O23        -0.4070    2.3820   -0.3670 o         1 MOL     -0.692659
    157 H67         4.4940    1.2610    0.0310 hn        1 MOL      0.234523
    158 H68         4.0800    3.1460    2.2300 h1        1 MOL      0.118965
    159 H69         2.0390    2.0040    2.4290 hc        1 MOL     -0.030382
    160 H70         2.6360    0.6160    1.3900 hc        1 MOL     -0.030382
    161 H71         2.5550    2.2070   -0.5590 hc        1 MOL      0.079030
    162 H72         1.9560    3.4110    0.6430 hc        1 MOL      0.079030
    163 N14         5.3560    0.1570    2.6950 n         1 MOL      0.059758
    164 C55         6.2490   -0.5690    3.5900 c3        1 MOL     -0.281503
    165 H73         5.9090   -1.6000    3.6840 h1        1 MOL      0.096111
    166 H74         7.2600   -0.5550    3.1840 h1        1 MOL      0.096111
    167 H75         6.2440   -0.0940    4.5710 h1        1 MOL      0.096111
    168 H76         5.3000   -0.1060    1.7240 hn        1 MOL      0.031512
    169 Ca1        -1.7270   -0.1410   -0.9710 Ca        1 MOL      1.658548
    170 O24        -0.9580   -2.5500   -1.6210 oh        1 MOL     -0.747387
    171 H77        -1.1760   -3.4540   -1.4000 ho        1 MOL      0.340693
    172 H78        -0.5020   -2.6060   -2.4600 ho        1 MOL      0.340693
@<TRIPOS>BOND
     1    1    2 1   
     2    1    4 1   
     3    1    5 1   
     4    1    6 1   
     5    2    3 2   
     6    2    7 1   
     7    7    8 1   
     8    7   15 1   
     9    8    9 1   
    10    8   11 1   
    11    8   16 1   
    12    9   10 2   
    13    9   19 1   
    14   11   12 1   
    15   11   17 1   
    16   11   18 1   
    17   12   13 1   
    18   12   14 1   
    19   19   20 1   
    20   19   24 1   
    21   20   21 1   
    22   20   23 1   
    23   20   25 1   
    24   21   22 2   
    25   21   29 1   
    26   23   26 1   
    27   23   27 1   
    28   23   28 1   
    29   29   30 1   
    30   29   37 1   
    31   30   31 1   
    32   30   33 1   
    33   30   38 1   
    34   31   32 2   
    35   31   41 1   
    36   33   34 1   
    37   33   39 1   
    38   33   40 1   
    39   34   35 1   
    40   34   36 1   
    41   41   42 1   
    42   41   45 1   
    43   42   43 1   
    44   42   46 1   
    45   42   47 1   
    46   43   44 2   
    47   43   48 1   
    48   48   49 1   
    49   48   56 1   
    50   49   50 1   
    51   49   52 1   
    52   49   57 1   
    53   50   51 2   
    54   50   62 1   
    55   52   53 1   
    56   52   58 1   
    57   52   59 1   
    58   53   54 1   
    59   53   55 2   
    60   54   60 1   
    61   54   61 1   
    62   62   63 1   
    63   62   66 1   
    64   63   64 1   
    65   63   67 1   
    66   63   68 1   
    67   64   65 2   
    68   64   69 1   
    69   69   70 1   
    70   69   76 1   
    71   70   71 1   
    72   70   73 1   
    73   70   77 1   
    74   71   72 2   
    75   71   83 1   
    76   73   74 1   
    77   73   75 1   
    78   73   78 1   
    79   74   80 1   
    80   74   81 1   
    81   74   82 1   
    82   75   79 1   
    83   83   84 1   
    84   83   91 1   
    85   84   85 1   
    86   84   87 1   
    87   84   92 1   
    88   85   86 2   
    89   85  102 1   
    90   87   88 1   
    91   87   89 1   
    92   87   93 1   
    93   88   90 1   
    94   88   94 1   
    95   88   95 1   
    96   89   96 1   
    97   89   97 1   
    98   89   98 1   
    99   90   99 1   
   100   90  100 1   
   101   90  101 1   
   102  102  103 1   
   103  102  110 1   
   104  103  104 1   
   105  103  106 1   
   106  103  111 1   
   107  104  105 2   
   108  104  114 1   
   109  106  107 1   
   110  106  112 1   
   111  106  113 1   
   112  107  108 1   
   113  107  109 1   
   114  114  115 1   
   115  114  125 1   
   116  115  116 1   
   117  115  118 1   
   118  115  126 1   
   119  116  117 2   
   120  116  134 1   
   121  118  119 1   
   122  118  127 1   
   123  118  128 1   
   124  119  120 ar  
   125  119  121 ar  
   126  120  122 ar  
   127  120  129 1   
   128  121  123 ar  
   129  121  130 1   
   130  122  124 ar  
   131  122  131 1   
   132  123  124 ar  
   133  123  132 1   
   134  124  133 1   
   135  134  135 1   
   136  134  140 1   
   137  135  136 1   
   138  135  138 1   
   139  135  141 1   
   140  136  137 2   
   141  136  148 1   
   142  138  139 1   
   143  138  142 1   
   144  138  143 1   
   145  139  140 1   
   146  139  144 1   
   147  139  145 1   
   148  140  146 1   
   149  140  147 1   
   150  148  149 1   
   151  148  157 1   
   152  149  150 1   
   153  149  152 1   
   154  149  158 1   
   155  150  151 2   
   156  150  163 1   
   157  152  153 1   
   158  152  159 1   
   159  152  160 1   
   160  153  154 1   
   161  153  161 1   
   162  153  162 1   
   163  154  155 1   
   164  154  156 1   
   165  163  164 1   
   166  163  168 1   
   167  164  165 1   
   168  164  166 1   
   169  164  167 1   
   170  170  171 1   
   171  170  172 1   
@<TRIPOS>SUBSTRUCTURE
     1 MOL         1 TEMP              0 ****  ****    0 ROOT
