@<TRIPOS>MOLECULE
MOL
  175   173     1     0     0
SMALL
resp


@<TRIPOS>ATOM
      1 C1          0.3330    4.1280    5.4910 c3        1 MOL     -0.429428
      2 C2         -0.0960    3.9770    4.0840 c         1 MOL      0.774790
      3 O1          0.7120    3.7870    3.2050 o         1 MOL     -0.581437
      4 H1          1.4190    4.0620    5.5480 hc        1 MOL      0.104279
      5 H2          0.0070    5.0980    5.8680 hc        1 MOL      0.104279
      6 H3         -0.1110    3.3350    6.0940 hc        1 MOL      0.104279
      7 N1         -1.3930    3.7620    3.9010 n         1 MOL     -0.673460
      8 C3         -2.0520    3.3310    2.6580 c3        1 MOL      0.242902
      9 C4         -2.2400    4.5010    1.7240 c         1 MOL      0.556190
     10 O2         -2.5630    5.5850    2.2060 o         1 MOL     -0.579154
     11 C5         -3.4560    2.7600    2.8960 c3        1 MOL     -0.367201
     12 C6         -4.1840    2.4700    1.6370 c         1 MOL      0.708802
     13 O3         -5.2410    3.0500    1.4430 o         1 MOL     -0.615912
     14 O4         -3.6380    1.7840    0.7680 o         1 MOL     -0.615912
     15 H4         -2.0160    3.6610    4.6940 hn        1 MOL      0.324497
     16 H5         -1.4630    2.5870    2.1320 h1        1 MOL      0.053919
     17 H6         -3.8980    3.4670    3.5990 hc        1 MOL      0.060420
     18 H7         -3.3730    1.7820    3.3750 hc        1 MOL      0.060420
     19 N2         -2.1180    4.3740    0.3800 n         1 MOL     -0.479549
     20 C7         -2.2970    5.4060   -0.6000 c3        1 MOL      0.412016
     21 C8         -3.3960    5.0900   -1.5810 c         1 MOL      0.305677
     22 O5         -3.7370    5.9240   -2.4350 o         1 MOL     -0.554839
     23 C9         -0.9680    5.6570   -1.2190 c3        1 MOL     -0.150195
     24 H8         -1.9030    3.4440    0.0490 hn        1 MOL      0.211776
     25 H9         -2.5200    6.3410   -0.0920 h1        1 MOL     -0.008477
     26 H10        -0.6020    4.7650   -1.7350 hc        1 MOL      0.025146
     27 H11        -0.9200    6.5840   -1.7870 hc        1 MOL      0.025146
     28 H12        -0.2340    5.8290   -0.4370 hc        1 MOL      0.025146
     29 N3         -3.9630    3.8380   -1.6000 n         1 MOL     -0.172497
     30 C10        -4.7120    3.3110   -2.6870 c3        1 MOL      0.036180
     31 C11        -5.8620    2.3050   -2.3330 c         1 MOL      0.298757
     32 O6         -6.6920    1.8870   -3.1770 o         1 MOL     -0.533494
     33 C12        -3.8070    2.7520   -3.7860 c3        1 MOL     -0.133966
     34 C13        -2.9050    1.5870   -3.4150 c         1 MOL      0.729689
     35 O7         -3.0710    0.9720   -2.3600 o         1 MOL     -0.705534
     36 O8         -1.9490    1.3430   -4.1490 o         1 MOL     -0.705534
     37 H13        -3.7680    3.1740   -0.8570 hn        1 MOL      0.164976
     38 H14        -5.1520    4.2070   -3.1290 h1        1 MOL      0.079225
     39 H15        -3.1090    3.5240   -4.0960 hc        1 MOL      0.025490
     40 H16        -4.4020    2.4590   -4.6510 hc        1 MOL      0.025490
     41 N4         -6.1290    2.0690   -1.0290 n         1 MOL     -0.011774
     42 C14        -7.3630    1.4250   -0.4930 c3        1 MOL     -0.241716
     43 C15        -7.4500   -0.0280   -0.9840 c         1 MOL      0.539648
     44 O9         -8.5670   -0.5280   -0.9580 o         1 MOL     -0.636324
     45 H17        -5.4450    2.4090   -0.3610 hn        1 MOL      0.006597
     46 H18        -8.1720    1.9420   -1.0170 h1        1 MOL      0.124966
     47 H19        -7.4800    1.4720    0.5950 h1        1 MOL      0.124966
     48 N5         -6.4250   -0.7740   -1.3450 n         1 MOL     -0.047799
     49 C16        -6.4230   -2.1310   -1.9110 c3        1 MOL     -0.255058
     50 C17        -6.1560   -3.3050   -0.9260 c         1 MOL      0.435624
     51 O10        -5.7760   -4.4330   -1.3360 o         1 MOL     -0.490799
     52 C18        -5.3650   -2.0590   -3.0790 c3        1 MOL      0.089394
     53 C19        -3.8820   -2.0910   -2.5710 c         1 MOL      0.285620
     54 N6         -2.8050   -2.2620   -3.4040 n         1 MOL     -0.657248
     55 O11        -3.6710   -1.9250   -1.3380 o         1 MOL     -0.092614
     56 H20        -5.5020   -0.3510   -1.2360 hn        1 MOL      0.008252
     57 H21        -7.4220   -2.1820   -2.3210 h1        1 MOL      0.150985
     58 H22        -5.5300   -1.1980   -3.7150 hc        1 MOL      0.025743
     59 H23        -5.5380   -2.8640   -3.8010 hc        1 MOL      0.025743
     60 H24        -2.9200   -2.3930   -4.3990 hn        1 MOL      0.365395
     61 H25        -1.9470   -1.9560   -2.9620 hn        1 MOL      0.365395
     62 N7         -6.3490   -3.0620    0.3640 n         1 MOL     -0.243941
     63 C20        -6.2960   -4.0970    1.3760 c3        1 MOL     -0.175101
     64 C21        -4.9370   -4.6050    1.8260 c         1 MOL      0.509043
     65 O12        -4.9170   -5.6210    2.5090 o         1 MOL     -0.564453
     66 H26        -6.7740   -2.1670    0.5740 hn        1 MOL      0.253541
     67 H27        -6.8110   -5.0270    1.1090 h1        1 MOL      0.108781
     68 H28        -6.9060   -3.7240    2.2060 h1        1 MOL      0.108781
     69 N8         -3.8260   -4.0480    1.3320 n         1 MOL     -0.251756
     70 C22        -2.4470   -4.5690    1.4490 c3        1 MOL     -0.049440
     71 C23        -1.4170   -3.4100    1.5950 c         1 MOL      0.328331
     72 O13        -1.4160   -2.5130    0.7260 o         1 MOL     -0.408047
     73 C24        -1.9450   -5.4250    0.2800 c3        1 MOL      0.551948
     74 C25        -2.5580   -6.7790    0.2770 c3        1 MOL     -0.603539
     75 O14        -2.2820   -4.7880   -0.9230 oh        1 MOL     -0.549462
     76 H29        -3.9830   -3.3700    0.6000 hn        1 MOL      0.025113
     77 H30        -2.3270   -5.1180    2.3820 h1        1 MOL      0.063620
     78 H31        -0.8590   -5.4760    0.3920 h1        1 MOL     -0.038002
     79 H32        -2.0200   -3.8660   -0.8690 ho        1 MOL      0.252557
     80 H33        -2.1050   -7.3190   -0.5590 hc        1 MOL      0.156214
     81 H34        -2.3480   -7.2890    1.2060 hc        1 MOL      0.156214
     82 H35        -3.6490   -6.7290    0.2110 hc        1 MOL      0.156214
     83 N9         -0.3930   -3.5120    2.3930 n         1 MOL     -0.296517
     84 C26         0.8340   -2.6640    2.2560 c3        1 MOL     -0.099315
     85 C27         1.6070   -3.0580    0.9860 c         1 MOL      0.594321
     86 O15         2.1120   -4.1460    0.8670 o         1 MOL     -0.604893
     87 C28         1.6260   -2.6850    3.5470 c3        1 MOL      0.084487
     88 C29         1.0320   -1.6210    4.5870 c3        1 MOL     -0.075719
     89 C30         3.1270   -2.3040    3.2630 c3        1 MOL     -0.052695
     90 C31         1.7920   -1.6360    5.9490 c3        1 MOL     -0.076370
     91 H36        -0.4610   -4.3240    2.9910 hn        1 MOL      0.251187
     92 H37         0.6110   -1.6110    2.0760 h1        1 MOL     -0.087595
     93 H38         1.7150   -3.7010    3.9220 hc        1 MOL      0.019148
     94 H39         0.0000   -1.9200    4.7150 hc        1 MOL      0.035313
     95 H40         1.1030   -0.6000    4.1940 hc        1 MOL      0.035313
     96 H41         3.7190   -2.5920    4.1350 hc        1 MOL      0.014231
     97 H42         3.6360   -2.7780    2.4240 hc        1 MOL      0.014231
     98 H43         3.1260   -1.2270    3.0710 hc        1 MOL      0.014231
     99 H44         1.2340   -1.0150    6.6490 hc        1 MOL      0.014807
    100 H45         1.8200   -2.6330    6.3760 hc        1 MOL      0.014807
    101 H46         2.7770   -1.1720    5.9130 hc        1 MOL      0.014807
    102 N10         1.7980   -2.1240    0.0860 n         1 MOL     -0.052203
    103 C32         2.6730   -2.1690   -1.1090 c3        1 MOL     -0.123436
    104 C33         4.1080   -1.7530   -0.9000 c         1 MOL      0.599771
    105 O16         4.4360   -1.3190    0.2460 o         1 MOL     -0.461426
    106 C34         2.0500   -1.1550   -2.1730 c3        1 MOL     -0.231603
    107 C35         0.5560   -1.3760   -2.5510 c         1 MOL      0.740015
    108 O17        -0.3180   -0.9340   -1.8090 o         1 MOL     -0.678837
    109 O18         0.2790   -2.0310   -3.6010 o         1 MOL     -0.678837
    110 H47         1.2140   -1.3050    0.1680 hn        1 MOL      0.003462
    111 H48         2.7510   -3.1930   -1.4950 h1        1 MOL      0.104559
    112 H49         2.6050   -1.2250   -3.1080 hc        1 MOL      0.072856
    113 H50         2.3530   -0.1280   -1.9950 hc        1 MOL      0.072856
    114 N11         5.0550   -1.8260   -1.8600 n         1 MOL     -0.807721
    115 C36         6.4540   -1.4220   -1.5690 c3        1 MOL      0.651426
    116 C37         6.5990    0.0780   -1.0920 c         1 MOL      0.173804
    117 O19         7.1190    0.2420   -0.0300 o         1 MOL     -0.456455
    118 C38         7.3900   -1.8970   -2.6620 c3        1 MOL     -0.202342
    119 C39         8.8640   -1.7360   -2.3560 ca        1 MOL      0.158065
    120 C40         9.4060   -2.2250   -1.1300 ca        1 MOL     -0.259195
    121 C41         9.7260   -1.1240   -3.3050 ca        1 MOL     -0.259195
    122 C42        10.7070   -1.8120   -0.7020 ca        1 MOL     -0.026962
    123 C43        11.0370   -0.9090   -2.9110 ca        1 MOL     -0.026962
    124 C44        11.5640   -1.2480   -1.6330 ca        1 MOL     -0.168630
    125 H51         4.8630   -2.3780   -2.6920 hn        1 MOL      0.366505
    126 H52         6.7350   -1.9610   -0.6630 h1        1 MOL     -0.022956
    127 H53         7.1310   -1.3560   -3.5650 hc        1 MOL      0.032578
    128 H54         7.0570   -2.9120   -2.8590 hc        1 MOL      0.032578
    129 H55         8.7740   -2.8090   -0.4820 ha        1 MOL      0.143243
    130 H56         9.3630   -0.9300   -4.3050 ha        1 MOL      0.143243
    131 H57        11.0130   -2.1040    0.2930 ha        1 MOL      0.091860
    132 H58        11.6010   -0.3880   -3.6720 ha        1 MOL      0.091860
    133 H59        12.6240   -1.1560   -1.4500 ha        1 MOL      0.105794
    134 N12         6.0300    1.0680   -1.7340 n         1 MOL     -0.037160
    135 C45         6.2290    2.5170   -1.3750 c3        1 MOL      0.038559
    136 C46         5.6710    2.7180    0.0330 c         1 MOL      0.255227
    137 O20         6.1860    3.5170    0.7700 o         1 MOL     -0.502353
    138 C47         5.4180    3.3420   -2.3690 c3        1 MOL      0.062940
    139 C48         5.3910    2.4190   -3.5670 c3        1 MOL     -0.059893
    140 C49         5.3610    1.0040   -2.9950 c3        1 MOL     -0.059314
    141 H60         7.2640    2.8730   -1.3770 h1        1 MOL      0.064767
    142 H61         4.4190    3.4900   -1.9740 hc        1 MOL      0.014383
    143 H62         5.8900    4.2970   -2.6150 hc        1 MOL      0.014383
    144 H63         4.4860    2.6540   -4.1370 hc        1 MOL      0.028378
    145 H64         6.2980    2.5560   -4.1510 hc        1 MOL      0.028378
    146 H65         4.3690    0.6470   -2.7220 h1        1 MOL      0.041969
    147 H66         5.8440    0.2800   -3.6580 h1        1 MOL      0.041969
    148 N13         4.6900    1.9400    0.4890 n         1 MOL      0.079980
    149 C50         3.9550    2.1170    1.7390 c3        1 MOL     -0.327871
    150 C51         4.7020    1.4020    2.8620 c         1 MOL      0.529437
    151 O21         4.7800    1.8680    3.9700 o         1 MOL     -0.579625
    152 C52         2.5100    1.5620    1.5990 c3        1 MOL     -0.122106
    153 C53         1.7350    2.2180    0.4270 c3        1 MOL      0.050546
    154 C54         0.3350    1.6140    0.2740 c         1 MOL      0.414232
    155 O22         0.0820    0.5280    0.8570 o         1 MOL     -0.563491
    156 O23        -0.6510    2.0990   -0.3780 o         1 MOL     -0.563491
    157 H67         4.2740    1.2490   -0.1060 hn        1 MOL      0.090933
    158 H68         3.8500    3.1560    2.0390 h1        1 MOL      0.149910
    159 H69         1.9740    1.6870    2.5330 hc        1 MOL      0.142824
    160 H70         2.5110    0.4900    1.4210 hc        1 MOL      0.142824
    161 H71         2.2380    2.1030   -0.5390 hc        1 MOL      0.034217
    162 H72         1.5760    3.2830    0.5630 hc        1 MOL      0.034217
    163 N14         5.2340    0.1880    2.6240 n         1 MOL      0.043892
    164 C55         6.2500   -0.4410    3.4250 c3        1 MOL     -0.184088
    165 H73         7.2340   -0.1730    3.0390 h1        1 MOL      0.061689
    166 H74         6.1620   -0.1040    4.4580 h1        1 MOL      0.061689
    167 H75         6.1270   -1.5230    3.3850 h1        1 MOL      0.061689
    168 H76         5.1270   -0.0760    1.6560 hn        1 MOL      0.020009
    169 Ca1        -2.1590   -0.0950   -0.2680 Ca        1 MOL      1.486674
    170 O24        -4.3730   -0.8520    1.3280 oh        1 MOL     -0.690508
    171 H77        -3.7160   -0.8660    2.0180 ho        1 MOL      0.347171
    172 H78        -5.2120   -0.8190    1.7970 ho        1 MOL      0.347171
    173 O25        -1.7320   -0.0950    2.7040 oh        1 MOL     -0.690508
    174 H79        -1.8940    0.2940    3.5600 ho        1 MOL      0.347171
    175 H80        -0.9330    0.3300    2.3970 ho        1 MOL      0.347171
@<TRIPOS>BOND
     1    1    2 1   
     2    1    4 1   
     3    1    5 1   
     4    1    6 1   
     5    2    3 2   
     6    2    7 1   
     7    7    8 1   
     8    7   15 1   
     9    8    9 1   
    10    8   11 1   
    11    8   16 1   
    12    9   10 2   
    13    9   19 1   
    14   11   12 1   
    15   11   17 1   
    16   11   18 1   
    17   12   13 1   
    18   12   14 1   
    19   19   20 1   
    20   19   24 1   
    21   20   21 1   
    22   20   23 1   
    23   20   25 1   
    24   21   22 2   
    25   21   29 1   
    26   23   26 1   
    27   23   27 1   
    28   23   28 1   
    29   29   30 1   
    30   29   37 1   
    31   30   31 1   
    32   30   33 1   
    33   30   38 1   
    34   31   32 2   
    35   31   41 1   
    36   33   34 1   
    37   33   39 1   
    38   33   40 1   
    39   34   35 1   
    40   34   36 1   
    41   41   42 1   
    42   41   45 1   
    43   42   43 1   
    44   42   46 1   
    45   42   47 1   
    46   43   44 2   
    47   43   48 1   
    48   48   49 1   
    49   48   56 1   
    50   49   50 1   
    51   49   52 1   
    52   49   57 1   
    53   50   51 2   
    54   50   62 1   
    55   52   53 1   
    56   52   58 1   
    57   52   59 1   
    58   53   54 1   
    59   53   55 2   
    60   54   60 1   
    61   54   61 1   
    62   62   63 1   
    63   62   66 1   
    64   63   64 1   
    65   63   67 1   
    66   63   68 1   
    67   64   65 2   
    68   64   69 1   
    69   69   70 1   
    70   69   76 1   
    71   70   71 1   
    72   70   73 1   
    73   70   77 1   
    74   71   72 2   
    75   71   83 1   
    76   73   74 1   
    77   73   75 1   
    78   73   78 1   
    79   74   80 1   
    80   74   81 1   
    81   74   82 1   
    82   75   79 1   
    83   83   84 1   
    84   83   91 1   
    85   84   85 1   
    86   84   87 1   
    87   84   92 1   
    88   85   86 2   
    89   85  102 1   
    90   87   88 1   
    91   87   89 1   
    92   87   93 1   
    93   88   90 1   
    94   88   94 1   
    95   88   95 1   
    96   89   96 1   
    97   89   97 1   
    98   89   98 1   
    99   90   99 1   
   100   90  100 1   
   101   90  101 1   
   102  102  103 1   
   103  102  110 1   
   104  103  104 1   
   105  103  106 1   
   106  103  111 1   
   107  104  105 2   
   108  104  114 1   
   109  106  107 1   
   110  106  112 1   
   111  106  113 1   
   112  107  108 1   
   113  107  109 1   
   114  114  115 1   
   115  114  125 1   
   116  115  116 1   
   117  115  118 1   
   118  115  126 1   
   119  116  117 2   
   120  116  134 1   
   121  118  119 1   
   122  118  127 1   
   123  118  128 1   
   124  119  120 ar  
   125  119  121 ar  
   126  120  122 ar  
   127  120  129 1   
   128  121  123 ar  
   129  121  130 1   
   130  122  124 ar  
   131  122  131 1   
   132  123  124 ar  
   133  123  132 1   
   134  124  133 1   
   135  134  135 1   
   136  134  140 1   
   137  135  136 1   
   138  135  138 1   
   139  135  141 1   
   140  136  137 2   
   141  136  148 1   
   142  138  139 1   
   143  138  142 1   
   144  138  143 1   
   145  139  140 1   
   146  139  144 1   
   147  139  145 1   
   148  140  146 1   
   149  140  147 1   
   150  148  149 1   
   151  148  157 1   
   152  149  150 1   
   153  149  152 1   
   154  149  158 1   
   155  150  151 2   
   156  150  163 1   
   157  152  153 1   
   158  152  159 1   
   159  152  160 1   
   160  153  154 1   
   161  153  161 1   
   162  153  162 1   
   163  154  155 1   
   164  154  156 1   
   165  163  164 1   
   166  163  168 1   
   167  164  165 1   
   168  164  166 1   
   169  164  167 1   
   170  170  171 1   
   171  170  172 1   
   172  173  174 1   
   173  173  175 1   
@<TRIPOS>SUBSTRUCTURE
     1 MOL         1 TEMP              0 ****  ****    0 ROOT
