@<TRIPOS>MOLECULE
MOL
  179   176     1     0     0
SMALL
resp


@<TRIPOS>ATOM
      1 C1          1.6560    2.7620    6.3800 c3        1 MOL     -0.384139
      2 C2          1.5150    2.5470    4.9150 c         1 MOL      0.773327
      3 O1          2.5040    2.3410    4.2180 o         1 MOL     -0.603715
      4 H1          0.6890    2.6180    6.8620 hc        1 MOL      0.098453
      5 H2          2.3740    2.0490    6.7850 hc        1 MOL      0.098453
      6 H3          2.0070    3.7760    6.5670 hc        1 MOL      0.098453
      7 N1          0.2800    2.5690    4.4120 n         1 MOL     -0.590798
      8 C3         -0.1220    2.4340    2.9660 c3        1 MOL     -0.026234
      9 C4         -0.0310    3.7590    2.2130 c         1 MOL      0.626961
     10 O2         -0.5480    4.7610    2.7250 o         1 MOL     -0.562775
     11 C5         -1.5690    1.8940    2.9310 c3        1 MOL     -0.045295
     12 C6         -2.2590    1.7260    1.5880 c         1 MOL      0.831223
     13 O3         -1.5780    1.8770    0.5210 o         1 MOL     -0.781306
     14 O4         -3.4310    1.3360    1.6170 o         1 MOL     -0.781306
     15 H4         -0.5360    2.6870    4.9980 hn        1 MOL      0.324984
     16 H5          0.4770    1.7940    2.3230 h1        1 MOL      0.070046
     17 H6         -2.2180    2.4620    3.5950 hc        1 MOL      0.024020
     18 H7         -1.5510    0.8900    3.3600 hc        1 MOL      0.024020
     19 N2          0.8100    3.8610    1.1600 n         1 MOL     -0.350316
     20 C7          1.2830    5.1070    0.5870 c3        1 MOL     -0.044935
     21 C8          0.2700    5.6450   -0.4300 c         1 MOL      0.421000
     22 O5          0.4860    6.6410   -1.1340 o         1 MOL     -0.552234
     23 C9          2.6550    4.7670   -0.0660 c3        1 MOL     -0.052941
     24 C10         3.4810    6.0440   -0.4250 c3        1 MOL     -0.059708
     25 C11         4.7230    5.6980   -1.2450 c3        1 MOL     -0.022048
     26 C12         5.7750    6.8290   -1.4910 c3        1 MOL     -0.002535
     27 N3          6.9480    6.2860   -2.2060 n4        1 MOL     -0.284872
     28 H8          1.2010    2.9820    0.8650 hn        1 MOL      0.245717
     29 H9          1.3360    5.9570    1.2760 h1        1 MOL      0.109792
     30 H10         2.4250    4.2710   -1.0030 hc        1 MOL      0.079097
     31 H11         3.2890    4.1670    0.5950 hc        1 MOL      0.079097
     32 H12         3.7500    6.6200    0.4580 hc        1 MOL      0.042491
     33 H13         2.8800    6.7420   -1.0090 hc        1 MOL      0.042491
     34 H14         4.3540    5.2490   -2.1710 hc        1 MOL      0.034927
     35 H15         5.2560    4.8590   -0.7850 hc        1 MOL      0.034927
     36 H16         6.0240    7.3940   -0.5930 hx        1 MOL      0.094449
     37 H17         5.3130    7.5350   -2.1820 hx        1 MOL      0.094449
     38 H18         7.4880    5.7700   -1.5380 hn        1 MOL      0.310343
     39 H19         6.7880    5.6090   -2.9390 hn        1 MOL      0.310343
     40 H20         7.5770    7.0160   -2.5260 hn        1 MOL      0.310343
     41 N4         -0.7460    4.8590   -0.7810 n         1 MOL     -0.188599
     42 C13        -1.8770    5.2550   -1.6380 c3        1 MOL      0.185461
     43 C14        -3.2580    5.2070   -0.9580 c         1 MOL      0.398722
     44 O6         -4.0720    5.9710   -1.3990 o         1 MOL     -0.512580
     45 C15        -1.8060    4.5370   -2.9720 c3        1 MOL     -0.218829
     46 C16        -1.7010    3.0700   -2.7120 c         1 MOL      0.713317
     47 O7         -2.6900    2.4440   -2.3270 o         1 MOL     -0.748120
     48 O8         -0.5620    2.4680   -2.6290 o         1 MOL     -0.748120
     49 H21        -0.7980    3.9540   -0.3280 hn        1 MOL      0.115042
     50 H22        -1.8120    6.3000   -1.9590 h1        1 MOL      0.060727
     51 H23        -0.9340    4.9060   -3.5290 hc        1 MOL      0.060777
     52 H24        -2.7200    4.7660   -3.5080 hc        1 MOL      0.060777
     53 N5         -3.3540    4.3940    0.0920 n         1 MOL     -0.205280
     54 C17        -4.5720    4.2140    0.9400 c3        1 MOL      0.009382
     55 C18        -5.6690    3.3660    0.3430 c         1 MOL      0.389465
     56 O9         -6.8060    3.5320    0.7260 o         1 MOL     -0.560629
     57 H25        -2.5470    3.9050    0.4270 hn        1 MOL      0.048652
     58 H26        -4.9670    5.1750    1.2650 h1        1 MOL      0.080027
     59 H27        -4.3010    3.8270    1.9140 h1        1 MOL      0.080027
     60 N6         -5.3400    2.5100   -0.5960 n         1 MOL     -0.103174
     61 C19        -6.2670    1.5650   -1.2500 c3        1 MOL     -0.027419
     62 C20        -6.7100    0.3630   -0.3220 c         1 MOL      0.375585
     63 O10        -7.5850   -0.4300   -0.7390 o         1 MOL     -0.489365
     64 C21        -5.7740    1.2070   -2.6640 c3        1 MOL     -0.286701
     65 C22        -5.0180   -0.1080   -2.7110 c         1 MOL      0.647917
     66 N7         -5.3330   -0.9360   -3.7110 n         1 MOL     -0.699399
     67 O11        -4.0940   -0.3890   -1.9780 o         1 MOL     -0.629539
     68 H28        -4.3650    2.4910   -0.8370 hn        1 MOL      0.147341
     69 H29        -7.1850    2.0890   -1.5000 h1        1 MOL      0.128799
     70 H30        -5.1830    2.0540   -3.0100 hc        1 MOL      0.116854
     71 H31        -6.6570    1.1600   -3.3010 hc        1 MOL      0.116854
     72 H32        -6.0460   -0.7300   -4.3990 hn        1 MOL      0.342326
     73 H33        -4.7570   -1.7430   -3.8710 hn        1 MOL      0.342326
     74 N8         -6.0910    0.2550    0.8920 n         1 MOL     -0.259511
     75 C23        -6.4680   -0.6950    1.8760 c3        1 MOL     -0.007768
     76 C24        -5.5870   -1.9940    1.9460 c         1 MOL      0.322666
     77 O12        -6.1520   -2.9830    2.4430 o         1 MOL     -0.472170
     78 H34        -5.3030    0.8290    1.1760 hn        1 MOL      0.322531
     79 H35        -7.5160   -0.9880    1.7710 h1        1 MOL      0.079642
     80 H36        -6.4570   -0.1430    2.8170 h1        1 MOL      0.079642
     81 N9         -4.3510   -1.9890    1.3890 n         1 MOL     -0.140568
     82 C25        -3.4930   -3.1680    1.0960 c3        1 MOL     -0.097239
     83 C26        -2.0220   -2.6540    0.9690 c         1 MOL      0.436458
     84 O13        -1.7400   -1.4660    0.6380 o         1 MOL     -0.463647
     85 C27        -3.9420   -3.7200   -0.2540 c3        1 MOL      0.066578
     86 C28        -5.3570   -4.2130   -0.2530 ca        1 MOL     -0.040635
     87 C29        -5.6210   -5.4980    0.2780 ca        1 MOL     -0.226623
     88 C30        -6.4470   -3.4320   -0.7150 ca        1 MOL     -0.226623
     89 C31        -6.9380   -5.9980    0.4330 ca        1 MOL     -0.189883
     90 C32        -7.7620   -3.9560   -0.5880 ca        1 MOL     -0.189883
     91 C33        -8.0530   -5.2410   -0.0660 ca        1 MOL      0.363552
     92 O14        -9.1860   -5.8540   -0.3230 oh        1 MOL     -0.505496
     93 H37        -3.9940   -1.1050    1.0280 hn        1 MOL      0.118515
     94 H38        -3.6500   -3.8890    1.9000 h1        1 MOL      0.138848
     95 H39        -3.2720   -4.4880   -0.6540 hc        1 MOL      0.016012
     96 H40        -3.8850   -3.0220   -1.0890 hc        1 MOL      0.016012
     97 H41        -4.8040   -6.0700    0.6770 ha        1 MOL      0.153970
     98 H42        -6.2350   -2.4570   -1.1160 ha        1 MOL      0.153970
     99 H43        -7.0480   -6.9830    0.8420 ha        1 MOL      0.129411
    100 H44        -8.5060   -3.3250   -1.0520 ha        1 MOL      0.129411
    101 H45        -9.7220   -5.3670   -0.9570 ho        1 MOL      0.376129
    102 N10        -0.9870   -3.4950    1.2680 n         1 MOL     -0.363138
    103 C34         0.4160   -3.0440    1.0600 c3        1 MOL     -0.045307
    104 C35         1.1270   -4.1870    0.3120 c         1 MOL      0.385767
    105 O15         0.9740   -5.3830    0.5250 o         1 MOL     -0.517520
    106 C36         1.1720   -2.6440    2.3700 c3        1 MOL      0.138216
    107 C37         1.1480   -3.7360    3.4420 c3        1 MOL     -0.037594
    108 C38         0.5620   -1.3330    2.8710 c3        1 MOL     -0.575612
    109 C39         2.2770   -3.5570    4.4950 c3        1 MOL     -0.091996
    110 H46        -1.1320   -4.3820    1.7300 hn        1 MOL      0.260117
    111 H47         0.4880   -2.2320    0.3280 h1        1 MOL      0.046329
    112 H48         2.2100   -2.5670    2.0670 hc        1 MOL      0.001496
    113 H49         1.3920   -4.6820    2.9650 hc        1 MOL      0.040518
    114 H50         0.1250   -3.8500    3.8110 hc        1 MOL      0.040518
    115 H51         0.3860   -0.6980    1.9980 hc        1 MOL      0.165022
    116 H52        -0.4130   -1.5130    3.3260 hc        1 MOL      0.165022
    117 H53         1.2070   -0.7640    3.5440 hc        1 MOL      0.165022
    118 H54         3.2260   -3.2250    4.0680 hc        1 MOL      0.024031
    119 H55         1.8600   -2.7940    5.1440 hc        1 MOL      0.024031
    120 H56         2.3900   -4.4960    5.0400 hc        1 MOL      0.024031
    121 N11         2.0970   -3.6660   -0.4840 n         1 MOL     -0.135664
    122 C40         3.1070   -4.4470   -1.2530 c3        1 MOL     -0.005355
    123 C41         4.5810   -4.1880   -0.7930 c         1 MOL      0.440825
    124 O16         4.8840   -3.4380    0.1350 o         1 MOL     -0.418642
    125 C42         2.9130   -4.1540   -2.7460 c3        1 MOL      0.154584
    126 O17         3.5960   -2.9540   -3.0300 oh        1 MOL     -0.638496
    127 H57         2.0680   -2.6600   -0.5410 hn        1 MOL      0.171277
    128 H58         2.8890   -5.5150   -1.1890 h1        1 MOL      0.047901
    129 H59         1.8370   -4.0220   -2.8350 h1        1 MOL      0.024151
    130 H60         3.3170   -4.9950   -3.3080 h1        1 MOL      0.024151
    131 H61         3.2300   -2.1940   -2.5790 ho        1 MOL      0.465892
    132 N12         5.5630   -4.9180   -1.3480 n         1 MOL     -0.476639
    133 C43         6.9950   -4.7640   -0.9800 c3        1 MOL      0.124891
    134 C44         7.3770   -3.3280   -1.0910 c         1 MOL      0.537542
    135 O18         8.2420   -2.9600   -0.3280 o         1 MOL     -0.545194
    136 C45         7.7070   -5.7210   -1.8760 c3        1 MOL     -0.413043
    137 H62         5.3410   -5.3640   -2.2250 hn        1 MOL      0.301249
    138 H63         7.0510   -5.0910    0.0570 h1        1 MOL      0.119329
    139 H64         8.7560   -5.4490   -1.8860 hc        1 MOL      0.122529
    140 H65         7.6130   -6.7110   -1.4260 hc        1 MOL      0.122529
    141 H66         7.4090   -5.7810   -2.9250 hc        1 MOL      0.122529
    142 N13         6.8150   -2.5120   -2.0000 n         1 MOL     -0.393278
    143 C46         7.1460   -1.1310   -2.2660 c3        1 MOL      0.151332
    144 C47         6.7710   -0.2180   -1.0810 c         1 MOL      0.318511
    145 O19         7.6150    0.6030   -0.7070 o         1 MOL     -0.534580
    146 C48         6.3290   -0.6310   -3.4890 c3        1 MOL     -0.278451
    147 H67         6.0860   -2.9360   -2.5610 hn        1 MOL      0.240769
    148 H68         8.2090   -1.0190   -2.4870 h1        1 MOL      0.066958
    149 H69         6.8870    0.1620   -4.0010 hc        1 MOL      0.076919
    150 H70         6.1850   -1.4310   -4.2180 hc        1 MOL      0.076919
    151 H71         5.3640   -0.2500   -3.1440 hc        1 MOL      0.076919
    152 N14         5.6140   -0.4050   -0.4840 n         1 MOL      0.016356
    153 C49         5.2630    0.3270    0.7720 c3        1 MOL     -0.217224
    154 C50         6.1520   -0.0700    1.9980 c         1 MOL      0.485599
    155 O20         6.5440    0.7460    2.7870 o         1 MOL     -0.514623
    156 C51         3.7380    0.0600    1.0250 c3        1 MOL     -0.033137
    157 C52         2.9030    0.8350    0.0190 c3        1 MOL      0.063841
    158 C53         1.9980   -0.1090   -0.7450 c         1 MOL      0.671577
    159 O21         2.4610   -0.8990   -1.5310 o         1 MOL     -0.712986
    160 O22         0.7460   -0.0270   -0.6170 o         1 MOL     -0.712986
    161 H72         4.9710   -1.0680   -0.8890 hn        1 MOL      0.065449
    162 H73         5.4390    1.3990    0.6330 h1        1 MOL      0.098792
    163 H74         3.4950    0.3310    2.0520 hc        1 MOL      0.050363
    164 H75         3.5440   -1.0090    0.9310 hc        1 MOL      0.050363
    165 H76         3.5000    1.4280   -0.6670 hc        1 MOL     -0.034241
    166 H77         2.2680    1.5560    0.5400 hc        1 MOL     -0.034241
    167 N15         6.4690   -1.3940    2.1060 n         1 MOL     -0.070040
    168 C54         7.2710   -1.9640    3.1340 c3        1 MOL     -0.325882
    169 H78         8.3170   -1.7150    2.9580 h1        1 MOL      0.113348
    170 H79         6.9610   -1.5650    4.1000 h1        1 MOL      0.113348
    171 H80         7.1490   -3.0470    3.1320 h1        1 MOL      0.113348
    172 H81         6.0830   -2.0590    1.4470 hn        1 MOL      0.150456
    173 Ca1        -1.5520    0.2470   -1.5140 Ca        1 MOL      1.779144
    174 O23        -1.4800   -2.4220   -2.2510 oh        1 MOL     -0.843934
    175 H82        -0.7170   -2.6620   -2.7810 ho        1 MOL      0.413438
    176 H83        -2.0530   -3.1920   -2.2990 ho        1 MOL      0.413438
    177 O24        -1.2110   -0.2160   -4.2130 oh        1 MOL     -0.843934
    178 H84        -1.5390   -0.9540   -4.7290 ho        1 MOL      0.413438
    179 H85        -0.6310    0.2610   -4.8180 ho        1 MOL      0.413438
@<TRIPOS>BOND
     1    1    2 1   
     2    1    4 1   
     3    1    5 1   
     4    1    6 1   
     5    2    3 2   
     6    2    7 1   
     7    7    8 1   
     8    7   15 1   
     9    8    9 1   
    10    8   11 1   
    11    8   16 1   
    12    9   10 2   
    13    9   19 1   
    14   11   12 1   
    15   11   17 1   
    16   11   18 1   
    17   12   13 1   
    18   12   14 1   
    19   19   20 1   
    20   19   28 1   
    21   20   21 1   
    22   20   23 1   
    23   20   29 1   
    24   21   22 2   
    25   21   41 1   
    26   23   24 1   
    27   23   30 1   
    28   23   31 1   
    29   24   25 1   
    30   24   32 1   
    31   24   33 1   
    32   25   26 1   
    33   25   34 1   
    34   25   35 1   
    35   26   27 1   
    36   26   36 1   
    37   26   37 1   
    38   27   38 1   
    39   27   39 1   
    40   27   40 1   
    41   41   42 1   
    42   41   49 1   
    43   42   43 1   
    44   42   45 1   
    45   42   50 1   
    46   43   44 2   
    47   43   53 1   
    48   45   46 1   
    49   45   51 1   
    50   45   52 1   
    51   46   47 1   
    52   46   48 1   
    53   53   54 1   
    54   53   57 1   
    55   54   55 1   
    56   54   58 1   
    57   54   59 1   
    58   55   56 2   
    59   55   60 1   
    60   60   61 1   
    61   60   68 1   
    62   61   62 1   
    63   61   64 1   
    64   61   69 1   
    65   62   63 2   
    66   62   74 1   
    67   64   65 1   
    68   64   70 1   
    69   64   71 1   
    70   65   66 1   
    71   65   67 2   
    72   66   72 1   
    73   66   73 1   
    74   74   75 1   
    75   74   78 1   
    76   75   76 1   
    77   75   79 1   
    78   75   80 1   
    79   76   77 2   
    80   76   81 1   
    81   81   82 1   
    82   81   93 1   
    83   82   83 1   
    84   82   85 1   
    85   82   94 1   
    86   83   84 2   
    87   83  102 1   
    88   85   86 1   
    89   85   95 1   
    90   85   96 1   
    91   86   87 ar  
    92   86   88 ar  
    93   87   89 ar  
    94   87   97 1   
    95   88   90 ar  
    96   88   98 1   
    97   89   91 ar  
    98   89   99 1   
    99   90   91 ar  
   100   90  100 1   
   101   91   92 1   
   102   92  101 1   
   103  102  103 1   
   104  102  110 1   
   105  103  104 1   
   106  103  106 1   
   107  103  111 1   
   108  104  105 2   
   109  104  121 1   
   110  106  107 1   
   111  106  108 1   
   112  106  112 1   
   113  107  109 1   
   114  107  113 1   
   115  107  114 1   
   116  108  115 1   
   117  108  116 1   
   118  108  117 1   
   119  109  118 1   
   120  109  119 1   
   121  109  120 1   
   122  121  122 1   
   123  121  127 1   
   124  122  123 1   
   125  122  125 1   
   126  122  128 1   
   127  123  124 2   
   128  123  132 1   
   129  125  126 1   
   130  125  129 1   
   131  125  130 1   
   132  126  131 1   
   133  132  133 1   
   134  132  137 1   
   135  133  134 1   
   136  133  136 1   
   137  133  138 1   
   138  134  135 2   
   139  134  142 1   
   140  136  139 1   
   141  136  140 1   
   142  136  141 1   
   143  142  143 1   
   144  142  147 1   
   145  143  144 1   
   146  143  146 1   
   147  143  148 1   
   148  144  145 2   
   149  144  152 1   
   150  146  149 1   
   151  146  150 1   
   152  146  151 1   
   153  152  153 1   
   154  152  161 1   
   155  153  154 1   
   156  153  156 1   
   157  153  162 1   
   158  154  155 2   
   159  154  167 1   
   160  156  157 1   
   161  156  163 1   
   162  156  164 1   
   163  157  158 1   
   164  157  165 1   
   165  157  166 1   
   166  158  159 1   
   167  158  160 1   
   168  167  168 1   
   169  167  172 1   
   170  168  169 1   
   171  168  170 1   
   172  168  171 1   
   173  174  175 1   
   174  174  176 1   
   175  177  178 1   
   176  177  179 1   
@<TRIPOS>SUBSTRUCTURE
     1 MOL         1 TEMP              0 ****  ****    0 ROOT
