@<TRIPOS>MOLECULE
MOL
  175   173     1     0     0
SMALL
resp


@<TRIPOS>ATOM
      1 C1          1.0570    3.7860    5.2330 c3        1 MOL     -0.370942
      2 C2          0.3540    3.8740    3.8840 c         1 MOL      0.698245
      3 O1          1.0220    4.0440    2.8840 o         1 MOL     -0.553889
      4 H1          1.6220    2.8550    5.2870 hc        1 MOL      0.085577
      5 H2          1.7370    4.6300    5.3440 hc        1 MOL      0.085577
      6 H3          0.3160    3.8070    6.0310 hc        1 MOL      0.085577
      7 N1         -0.9490    3.6470    3.8660 n         1 MOL     -0.636870
      8 C3         -1.7420    3.5860    2.6790 c3        1 MOL      0.195304
      9 C4         -1.8870    4.7900    1.7270 c         1 MOL      0.579096
     10 O2         -2.0270    5.8710    2.2930 o         1 MOL     -0.572621
     11 C5         -3.1260    3.0630    3.1400 c3        1 MOL     -0.255420
     12 C6         -3.8950    2.5630    1.9120 c         1 MOL      0.790932
     13 O3         -5.1510    2.5590    1.9950 o         1 MOL     -0.694422
     14 O4         -3.2560    2.0700    0.9530 o         1 MOL     -0.694422
     15 H4         -1.3760    3.7610    4.7710 hn        1 MOL      0.327354
     16 H5         -1.2950    2.7100    2.2180 h1        1 MOL      0.097730
     17 H6         -3.6860    3.8170    3.6830 hc        1 MOL      0.031747
     18 H7         -3.0140    2.1610    3.7450 hc        1 MOL      0.031747
     19 N2         -1.9670    4.5870    0.4170 n         1 MOL     -0.604203
     20 C7         -2.0900    5.5560   -0.6630 c3        1 MOL      0.412548
     21 C8         -3.1500    5.2450   -1.6920 c         1 MOL      0.445814
     22 O5         -3.3600    5.9930   -2.6160 o         1 MOL     -0.561502
     23 C9         -0.7620    5.9420   -1.2650 c3        1 MOL     -0.379259
     24 H8         -1.6240    3.6740    0.1360 hn        1 MOL      0.346262
     25 H9         -2.5270    6.4610   -0.2340 h1        1 MOL     -0.000757
     26 H10        -0.0150    5.9190   -0.4850 hc        1 MOL      0.092553
     27 H11        -0.3640    5.1930   -1.9680 hc        1 MOL      0.092553
     28 H12        -0.8110    6.9480   -1.6750 hc        1 MOL      0.092553
     29 N3         -3.7980    4.0550   -1.6190 n         1 MOL     -0.331791
     30 C10        -4.7490    3.5550   -2.6630 c3        1 MOL      0.064001
     31 C11        -6.0070    2.8560   -2.1450 c         1 MOL      0.355300
     32 O6         -7.0450    2.8360   -2.7880 o         1 MOL     -0.547979
     33 C12        -4.1630    2.6290   -3.7670 c3        1 MOL      0.019776
     34 C13        -3.3580    1.4350   -3.2440 c         1 MOL      0.557421
     35 O7         -2.4640    0.9820   -4.0410 o         1 MOL     -0.623374
     36 O8         -3.7420    0.8460   -2.1190 o         1 MOL     -0.623374
     37 H13        -3.4540    3.3690   -0.9720 hn        1 MOL      0.166888
     38 H14        -5.0800    4.4370   -3.2220 h1        1 MOL      0.066530
     39 H15        -3.4840    3.1680   -4.4110 hc        1 MOL      0.003773
     40 H16        -4.9930    2.2900   -4.3880 hc        1 MOL      0.003773
     41 N4         -5.9780    2.3190   -0.8930 n         1 MOL     -0.048764
     42 C14        -7.2010    1.7300   -0.2660 c3        1 MOL     -0.156767
     43 C15        -7.3450    0.2210   -0.6810 c         1 MOL      0.443748
     44 O9         -8.4350   -0.3170   -0.5150 o         1 MOL     -0.595991
     45 H17        -5.1260    2.3690   -0.3460 hn        1 MOL     -0.002014
     46 H18        -8.0460    2.3160   -0.6120 h1        1 MOL      0.109098
     47 H19        -7.2800    1.8100    0.8230 h1        1 MOL      0.109098
     48 N5         -6.3210   -0.4240   -1.2970 n         1 MOL     -0.122905
     49 C16        -6.5320   -1.7590   -1.8810 c3        1 MOL     -0.005296
     50 C17        -6.5530   -2.9780   -0.9050 c         1 MOL      0.387069
     51 O10        -6.8530   -4.1080   -1.3580 o         1 MOL     -0.527356
     52 C18        -5.4340   -1.9990   -2.9870 c3        1 MOL     -0.204851
     53 C19        -4.0560   -2.2490   -2.4270 c         1 MOL      0.561093
     54 N6         -3.1580   -2.5040   -3.2810 n         1 MOL     -0.533715
     55 O11        -3.7420   -2.0250   -1.2630 o         1 MOL     -0.579544
     56 H20        -5.5640    0.2090   -1.4880 hn        1 MOL      0.125519
     57 H21        -7.4840   -1.7400   -2.4000 h1        1 MOL      0.099499
     58 H22        -5.4000   -1.1870   -3.7020 hc        1 MOL      0.072655
     59 H23        -5.7970   -2.8850   -3.5230 hc        1 MOL      0.072655
     60 H24        -3.4330   -2.7380   -4.2240 hn        1 MOL      0.301970
     61 H25        -2.1830   -2.6670   -3.0810 hn        1 MOL      0.301970
     62 N7         -6.3150   -2.6850    0.3420 n         1 MOL     -0.138772
     63 C20        -6.4820   -3.7190    1.4500 c3        1 MOL     -0.302019
     64 C21        -5.2060   -4.3770    1.8860 c         1 MOL      0.524339
     65 O12        -5.2760   -5.3300    2.6680 o         1 MOL     -0.561006
     66 H26        -6.0320   -1.7430    0.5950 hn        1 MOL      0.196254
     67 H27        -7.0970   -4.5370    1.0700 h1        1 MOL      0.142630
     68 H28        -6.8990   -3.1520    2.2880 h1        1 MOL      0.142630
     69 N8         -4.0980   -4.0070    1.1970 n         1 MOL     -0.232797
     70 C22        -2.6650   -4.4800    1.3280 c3        1 MOL     -0.349288
     71 C23        -1.5520   -3.4540    1.2960 c         1 MOL      0.812330
     72 O13        -1.6430   -2.4440    0.6250 o         1 MOL     -0.498923
     73 C24        -2.3600   -5.6000    0.2740 c3        1 MOL      0.509047
     74 C25        -3.1650   -6.9230    0.3930 c3        1 MOL     -0.624610
     75 O14        -2.6300   -5.0570   -1.0190 oh        1 MOL     -0.591637
     76 H29        -4.2460   -3.2600    0.5380 hn        1 MOL      0.268089
     77 H30        -2.6380   -5.0650    2.2470 h1        1 MOL      0.115198
     78 H31        -1.3020   -5.8560    0.2510 h1        1 MOL     -0.012694
     79 H32        -2.2680   -4.1700   -1.0130 ho        1 MOL      0.325912
     80 H33        -2.9340   -7.4680   -0.5290 hc        1 MOL      0.170190
     81 H34        -2.8900   -7.4480    1.2990 hc        1 MOL      0.170190
     82 H35        -4.2540   -6.8250    0.4040 hc        1 MOL      0.170190
     83 N9         -0.5200   -3.6600    2.1200 n         1 MOL     -0.811051
     84 C26         0.7100   -2.8160    2.0120 c3        1 MOL      0.055333
     85 C27         1.3820   -3.1400    0.6980 c         1 MOL      0.581177
     86 O15         1.6790   -4.3080    0.4920 o         1 MOL     -0.579435
     87 C28         1.6890   -2.9420    3.3490 c3        1 MOL      0.029858
     88 C29         1.0070   -2.6380    4.6830 c3        1 MOL      0.248584
     89 C30         2.9850   -2.0950    3.2730 c3        1 MOL     -0.099099
     90 C31         1.9260   -2.3900    5.8970 c3        1 MOL     -0.251422
     91 H36        -0.4120   -4.4970    2.6780 hn        1 MOL      0.370510
     92 H37         0.3990   -1.7780    2.0030 h1        1 MOL      0.198043
     93 H38         2.0140   -3.9790    3.2690 hc        1 MOL      0.005240
     94 H39         0.3890   -3.4930    4.9670 hc        1 MOL     -0.064458
     95 H40         0.3110   -1.7940    4.5950 hc        1 MOL     -0.064458
     96 H41         3.7160   -2.4740    3.9890 hc        1 MOL      0.015890
     97 H42         3.4500   -2.1200    2.2850 hc        1 MOL      0.015890
     98 H43         2.7450   -1.0600    3.4790 hc        1 MOL      0.015890
     99 H44         2.4980   -1.4800    5.7130 hc        1 MOL      0.052708
    100 H45         1.2880   -2.0660    6.7180 hc        1 MOL      0.052708
    101 H46         2.6110   -3.2130    6.0940 hc        1 MOL      0.052708
    102 N10         1.5820   -2.0780   -0.1220 n         1 MOL     -0.011472
    103 C32         2.4600   -1.9900   -1.2530 c3        1 MOL      0.051265
    104 C33         3.9040   -1.5010   -0.9280 c         1 MOL      0.347317
    105 O16         4.0710   -0.5810   -0.1640 o         1 MOL     -0.203537
    106 C34         1.7490   -1.0950   -2.3050 c3        1 MOL     -0.301705
    107 C35         0.2700   -1.4710   -2.6660 c         1 MOL      0.822768
    108 O17        -0.6890   -1.0210   -1.9810 o         1 MOL     -0.700157
    109 O18         0.0780   -2.2550   -3.6290 o         1 MOL     -0.700157
    110 H47         1.1840   -1.1660    0.0480 hn        1 MOL     -0.367813
    111 H48         2.5480   -3.0160   -1.6090 h1        1 MOL      0.030849
    112 H49         2.2820   -0.8670   -3.2320 hc        1 MOL      0.091689
    113 H50         1.6530   -0.1280   -1.8240 hc        1 MOL      0.091689
    114 N11         4.9230   -1.9390   -1.6850 n         1 MOL     -0.614835
    115 C36         6.2910   -1.6400   -1.3050 c3        1 MOL      0.338986
    116 C37         6.6670   -0.1080   -1.0260 c         1 MOL      0.339210
    117 O19         7.3360    0.0810   -0.0540 o         1 MOL     -0.509862
    118 C38         7.2080   -2.2480   -2.3400 c3        1 MOL     -0.233005
    119 C39         8.7440   -2.0800   -2.0940 ca        1 MOL      0.203375
    120 C40         9.5450   -1.2080   -2.8570 ca        1 MOL     -0.257972
    121 C41         9.3780   -2.8580   -1.1570 ca        1 MOL     -0.257972
    122 C42        10.8790   -0.9930   -2.6290 ca        1 MOL     -0.022198
    123 C43        10.7650   -2.6780   -0.9570 ca        1 MOL     -0.022198
    124 C44        11.5650   -1.7450   -1.7160 ca        1 MOL     -0.178082
    125 H51         4.7010   -2.5610   -2.4430 hn        1 MOL      0.350155
    126 H52         6.5260   -2.1050   -0.3500 h1        1 MOL      0.039526
    127 H53         6.8930   -1.8490   -3.3030 hc        1 MOL      0.062887
    128 H54         7.0470   -3.3220   -2.4890 hc        1 MOL      0.062887
    129 H55         9.0370   -0.5440   -3.5490 ha        1 MOL      0.131104
    130 H56         8.7850   -3.5420   -0.5680 ha        1 MOL      0.131104
    131 H57        11.4310   -0.3800   -3.3310 ha        1 MOL      0.085070
    132 H58        11.2360   -3.2340   -0.1580 ha        1 MOL      0.085070
    133 H59        12.6410   -1.7240   -1.6570 ha        1 MOL      0.116077
    134 N12         6.2620    0.9430   -1.7750 n         1 MOL      0.030602
    135 C45         6.5340    2.2920   -1.3350 c3        1 MOL      0.015834
    136 C46         5.8650    2.7000   -0.0080 c         1 MOL      0.278191
    137 O20         6.3360    3.6170    0.6560 o         1 MOL     -0.496196
    138 C47         5.9280    3.0590   -2.5110 c3        1 MOL     -0.026183
    139 C48         6.1210    2.2290   -3.7210 c3        1 MOL      0.139412
    140 C49         5.8250    0.8290   -3.1420 c3        1 MOL     -0.312356
    141 H60         7.6240    2.3920   -1.3220 h1        1 MOL      0.059060
    142 H61         4.8550    3.0350   -2.3250 hc        1 MOL      0.015659
    143 H62         6.4100    4.0270   -2.5830 hc        1 MOL      0.015659
    144 H63         5.6310    2.5860   -4.6280 hc        1 MOL     -0.011317
    145 H64         7.1860    2.3110   -3.9240 hc        1 MOL     -0.011317
    146 H65         4.7410    0.6810   -3.1400 h1        1 MOL      0.096782
    147 H66         6.2300    0.0480   -3.7810 h1        1 MOL      0.096782
    148 N13         4.7540    2.0940    0.3140 n         1 MOL     -0.011599
    149 C50         4.0440    2.2030    1.5890 c3        1 MOL     -0.214563
    150 C51         4.9460    1.7060    2.7310 c         1 MOL      0.468287
    151 O21         5.2860    2.4390    3.6620 o         1 MOL     -0.542786
    152 C52         2.6530    1.5410    1.4600 c3        1 MOL     -0.024371
    153 C53         1.7800    2.0520    0.3120 c3        1 MOL     -0.221629
    154 C54         0.5090    1.3310    0.2090 c         1 MOL      0.846891
    155 O22        -0.4050    1.9150   -0.4230 o         1 MOL     -0.762306
    156 O23         0.2940    0.2370    0.7650 o         1 MOL     -0.762306
    157 H67         4.4060    1.3560   -0.2930 hn        1 MOL      0.114039
    158 H68         3.8890    3.2630    1.8080 h1        1 MOL      0.131946
    159 H69         2.0800    1.7830    2.3610 hc        1 MOL      0.045398
    160 H70         2.7660    0.4590    1.4700 hc        1 MOL      0.045398
    161 H71         2.3020    1.9090   -0.6360 hc        1 MOL      0.078300
    162 H72         1.5040    3.1050    0.4610 hc        1 MOL      0.078300
    163 N14         5.4070    0.4720    2.5990 n         1 MOL     -0.012207
    164 C55         6.3460   -0.2140    3.4580 c3        1 MOL     -0.201020
    165 H73         6.5760   -1.1930    3.0360 h1        1 MOL      0.071889
    166 H74         7.2620    0.3710    3.5370 h1        1 MOL      0.071889
    167 H75         5.9080   -0.3400    4.4480 h1        1 MOL      0.071889
    168 H76         5.0830   -0.0600    1.7950 hn        1 MOL      0.075728
    169 Ca1        -2.2540   -0.0880   -0.1990 Ca        1 MOL      1.712994
    170 O24        -1.5760   -0.1110    2.5740 oh        1 MOL     -0.940666
    171 H77        -1.6740    0.0910    3.5070 ho        1 MOL      0.446412
    172 H78        -0.6400   -0.1660    2.4320 ho        1 MOL      0.446412
    173 O25        -3.9770   -0.8530    1.6810 oh        1 MOL     -0.940666
    174 H79        -3.3630   -0.6410    2.3880 ho        1 MOL      0.446412
    175 H80        -4.8430   -0.7170    2.0720 ho        1 MOL      0.446412
@<TRIPOS>BOND
     1    1    2 1   
     2    1    4 1   
     3    1    5 1   
     4    1    6 1   
     5    2    3 2   
     6    2    7 1   
     7    7    8 1   
     8    7   15 1   
     9    8    9 1   
    10    8   11 1   
    11    8   16 1   
    12    9   10 2   
    13    9   19 1   
    14   11   12 1   
    15   11   17 1   
    16   11   18 1   
    17   12   13 1   
    18   12   14 1   
    19   19   20 1   
    20   19   24 1   
    21   20   21 1   
    22   20   23 1   
    23   20   25 1   
    24   21   22 2   
    25   21   29 1   
    26   23   26 1   
    27   23   27 1   
    28   23   28 1   
    29   29   30 1   
    30   29   37 1   
    31   30   31 1   
    32   30   33 1   
    33   30   38 1   
    34   31   32 2   
    35   31   41 1   
    36   33   34 1   
    37   33   39 1   
    38   33   40 1   
    39   34   35 1   
    40   34   36 1   
    41   41   42 1   
    42   41   45 1   
    43   42   43 1   
    44   42   46 1   
    45   42   47 1   
    46   43   44 2   
    47   43   48 1   
    48   48   49 1   
    49   48   56 1   
    50   49   50 1   
    51   49   52 1   
    52   49   57 1   
    53   50   51 2   
    54   50   62 1   
    55   52   53 1   
    56   52   58 1   
    57   52   59 1   
    58   53   54 1   
    59   53   55 2   
    60   54   60 1   
    61   54   61 1   
    62   62   63 1   
    63   62   66 1   
    64   63   64 1   
    65   63   67 1   
    66   63   68 1   
    67   64   65 2   
    68   64   69 1   
    69   69   70 1   
    70   69   76 1   
    71   70   71 1   
    72   70   73 1   
    73   70   77 1   
    74   71   72 2   
    75   71   83 1   
    76   73   74 1   
    77   73   75 1   
    78   73   78 1   
    79   74   80 1   
    80   74   81 1   
    81   74   82 1   
    82   75   79 1   
    83   83   84 1   
    84   83   91 1   
    85   84   85 1   
    86   84   87 1   
    87   84   92 1   
    88   85   86 2   
    89   85  102 1   
    90   87   88 1   
    91   87   89 1   
    92   87   93 1   
    93   88   90 1   
    94   88   94 1   
    95   88   95 1   
    96   89   96 1   
    97   89   97 1   
    98   89   98 1   
    99   90   99 1   
   100   90  100 1   
   101   90  101 1   
   102  102  103 1   
   103  102  110 1   
   104  103  104 1   
   105  103  106 1   
   106  103  111 1   
   107  104  105 2   
   108  104  114 1   
   109  106  107 1   
   110  106  112 1   
   111  106  113 1   
   112  107  108 1   
   113  107  109 1   
   114  114  115 1   
   115  114  125 1   
   116  115  116 1   
   117  115  118 1   
   118  115  126 1   
   119  116  117 2   
   120  116  134 1   
   121  118  119 1   
   122  118  127 1   
   123  118  128 1   
   124  119  120 ar  
   125  119  121 ar  
   126  120  122 ar  
   127  120  129 1   
   128  121  123 ar  
   129  121  130 1   
   130  122  124 ar  
   131  122  131 1   
   132  123  124 ar  
   133  123  132 1   
   134  124  133 1   
   135  134  135 1   
   136  134  140 1   
   137  135  136 1   
   138  135  138 1   
   139  135  141 1   
   140  136  137 2   
   141  136  148 1   
   142  138  139 1   
   143  138  142 1   
   144  138  143 1   
   145  139  140 1   
   146  139  144 1   
   147  139  145 1   
   148  140  146 1   
   149  140  147 1   
   150  148  149 1   
   151  148  157 1   
   152  149  150 1   
   153  149  152 1   
   154  149  158 1   
   155  150  151 2   
   156  150  163 1   
   157  152  153 1   
   158  152  159 1   
   159  152  160 1   
   160  153  154 1   
   161  153  161 1   
   162  153  162 1   
   163  154  155 1   
   164  154  156 1   
   165  163  164 1   
   166  163  168 1   
   167  164  165 1   
   168  164  166 1   
   169  164  167 1   
   170  170  171 1   
   171  170  172 1   
   172  173  174 1   
   173  173  175 1   
@<TRIPOS>SUBSTRUCTURE
     1 MOL         1 TEMP              0 ****  ****    0 ROOT
