@<TRIPOS>MOLECULE
MOL
  176   174     1     0     0
SMALL
resp


@<TRIPOS>ATOM
      1 C1         -2.0570   -3.4400    5.1500 c3        1 MOL     -0.280689
      2 C2         -1.6710   -2.7960    3.7740 c         1 MOL      0.609616
      3 O1         -2.4380   -2.5980    2.8810 o         1 MOL     -0.535301
      4 H1         -3.0800   -3.8110    5.1020 hc        1 MOL      0.072008
      5 H2         -1.3800   -4.2670    5.3680 hc        1 MOL      0.072008
      6 H3         -1.9790   -2.6900    5.9380 hc        1 MOL      0.072008
      7 N1         -0.3300   -2.4740    3.5820 n         1 MOL     -0.456883
      8 C3          0.2830   -2.4420    2.2270 c3        1 MOL      0.240628
      9 C4          0.2620   -3.7900    1.6020 c         1 MOL      0.188891
     10 O2          0.7740   -4.7800    2.1230 o         1 MOL     -0.522022
     11 C5          1.7450   -1.8330    2.3530 c3        1 MOL     -0.225772
     12 C6          2.4030   -1.6060    1.0100 c         1 MOL      1.126659
     13 O3          3.4050   -0.9240    0.9550 o         1 MOL     -0.838192
     14 O4          2.0360   -2.2080    0.0040 o         1 MOL     -0.838192
     15 H4          0.2980   -2.5960    4.3630 hn        1 MOL      0.275607
     16 H5         -0.3000   -1.7900    1.5760 h1        1 MOL     -0.097111
     17 H6          2.3270   -2.4660    3.0170 hc        1 MOL      0.028350
     18 H7          1.5510   -0.8560    2.7970 hc        1 MOL      0.028350
     19 N2         -0.3750   -3.8910    0.4040 n         1 MOL      0.007476
     20 C7         -0.6170   -5.0750   -0.3360 c3        1 MOL     -0.164999
     21 C8          0.6190   -5.4750   -1.1340 c         1 MOL      0.505251
     22 O5          0.4990   -6.5430   -1.7720 o         1 MOL     -0.570369
     23 C9         -1.8310   -4.6690   -1.2870 c3        1 MOL      0.009189
     24 C10        -3.1710   -4.5100   -0.4660 c3        1 MOL     -0.036883
     25 C11        -3.6390   -5.7380    0.3370 c3        1 MOL     -0.094734
     26 C12        -3.2710   -5.5920    1.8140 c3        1 MOL      0.197599
     27 N3         -3.4740   -6.8890    2.4520 n4        1 MOL     -0.495308
     28 H8         -0.7520   -3.0700   -0.0410 hn        1 MOL      0.272041
     29 H9         -0.8700   -5.8440    0.3930 h1        1 MOL      0.084290
     30 H10        -2.0060   -5.4610   -2.0060 hc        1 MOL      0.029355
     31 H11        -1.5980   -3.7110   -1.7550 hc        1 MOL      0.029355
     32 H12        -3.9880   -4.2970   -1.1530 hc        1 MOL      0.069479
     33 H13        -3.0070   -3.6870    0.2360 hc        1 MOL      0.069479
     34 H14        -3.2210   -6.6290   -0.1180 hc        1 MOL      0.038700
     35 H15        -4.7290   -5.7540    0.3380 hc        1 MOL      0.038700
     36 H16        -3.8910   -4.7840    2.2020 hx        1 MOL      0.042797
     37 H17        -2.2160   -5.3380    1.8290 hx        1 MOL      0.042797
     38 H18        -3.3480   -6.7480    3.4420 hn        1 MOL      0.350515
     39 H19        -4.4310   -7.1980    2.4390 hn        1 MOL      0.350515
     40 H20        -2.7290   -7.5260    2.2380 hn        1 MOL      0.350515
     41 N4          1.7260   -4.7560   -1.1140 n         1 MOL     -0.209130
     42 C13         2.9070   -5.0310   -1.9110 c3        1 MOL      0.144925
     43 C14         4.1790   -4.6540   -1.1220 c         1 MOL      0.291500
     44 O6          5.2730   -5.2260   -1.4150 o         1 MOL     -0.530708
     45 C15         2.9290   -4.2470   -3.2580 c3        1 MOL     -0.329454
     46 C16         2.4400   -2.8440   -3.1660 c         1 MOL      0.649111
     47 O7          3.2330   -1.9480   -2.7530 o         1 MOL     -0.673652
     48 O8          1.2160   -2.5230   -3.2890 o         1 MOL     -0.673652
     49 H21         1.8200   -3.8510   -0.6800 hn        1 MOL      0.026366
     50 H22         2.9410   -6.1040   -2.1140 h1        1 MOL      0.082251
     51 H23         2.3770   -4.8390   -3.9830 hc        1 MOL      0.107340
     52 H24         3.9700   -4.1170   -3.5520 hc        1 MOL      0.107340
     53 N5          4.2230   -3.8150   -0.1030 n         1 MOL     -0.119767
     54 C17         5.4010   -3.5900    0.8040 c3        1 MOL     -0.138241
     55 C18         6.4610   -2.5920    0.2790 c         1 MOL      0.523405
     56 O9          7.5980   -2.7040    0.6670 o         1 MOL     -0.554790
     57 H25         3.3470   -3.3830    0.1420 hn        1 MOL      0.213312
     58 H26         5.7850   -4.5670    1.1020 h1        1 MOL      0.088847
     59 H27         4.9990   -3.1100    1.6900 h1        1 MOL      0.088847
     60 N6          6.0250   -1.7090   -0.5870 n         1 MOL     -0.181976
     61 C19         6.8010   -0.5680   -0.9980 c3        1 MOL     -0.022615
     62 C20         6.8490    0.5580    0.0140 c         1 MOL      0.375258
     63 O10         7.6590    1.4580   -0.2730 o         1 MOL     -0.501578
     64 C21         6.3870   -0.1930   -2.4130 c3        1 MOL      0.001973
     65 C22         5.2740    0.8540   -2.5460 c         1 MOL      0.520503
     66 N7          5.6320    1.9790   -3.1180 n         1 MOL     -0.651650
     67 O11         4.1520    0.7440   -2.0480 o         1 MOL     -0.602805
     68 H28         5.0490   -1.6150   -0.8100 hn        1 MOL      0.119557
     69 H29         7.8330   -0.9180   -0.9670 h1        1 MOL      0.114366
     70 H30         6.0760   -1.0670   -2.9870 hc        1 MOL      0.028030
     71 H31         7.2670    0.1750   -2.9340 hc        1 MOL      0.028030
     72 H32         6.5470    2.0240   -3.5540 hn        1 MOL      0.342641
     73 H33         5.0180    2.7740   -3.2290 hn        1 MOL      0.342641
     74 N8          6.0220    0.5670    1.0810 n         1 MOL     -0.162384
     75 C23         6.2340    1.6740    2.0660 c3        1 MOL     -0.441785
     76 C24         4.9540    2.5420    2.2970 c         1 MOL      0.588972
     77 O12         5.0200    3.5200    2.9900 o         1 MOL     -0.529148
     78 H34         5.3010   -0.1320    1.1480 hn        1 MOL      0.237325
     79 H35         6.9350    2.4390    1.7510 h1        1 MOL      0.205858
     80 H36         6.4600    1.3350    3.0850 h1        1 MOL      0.205858
     81 N9          3.8950    2.3150    1.4520 n         1 MOL     -0.496726
     82 C25         2.7530    3.1990    1.1750 c3        1 MOL      0.086206
     83 C26         1.4280    2.4660    0.9270 c         1 MOL      0.591895
     84 O13         1.5580    1.3930    0.2710 o         1 MOL     -0.743281
     85 C27         3.1210    4.1460   -0.0460 c3        1 MOL      0.223668
     86 C28         4.2080    5.1480    0.1030 ca        1 MOL     -0.034731
     87 C29         5.5080    4.7080   -0.2340 ca        1 MOL     -0.119176
     88 C30         4.0160    6.4790    0.4620 ca        1 MOL     -0.119176
     89 C31         6.6220    5.5450   -0.0070 ca        1 MOL     -0.312237
     90 C32         5.1350    7.3190    0.6440 ca        1 MOL     -0.312237
     91 C33         6.4370    6.8010    0.4720 ca        1 MOL      0.447730
     92 O14         7.4760    7.6840    0.5040 oh        1 MOL     -0.507455
     93 H37         3.8370    1.4880    0.8810 hn        1 MOL      0.361269
     94 H38         2.6550    3.8810    2.0150 h1        1 MOL      0.037787
     95 H39         2.2380    4.7440   -0.2580 hc        1 MOL     -0.057674
     96 H40         3.2560    3.6060   -0.9820 hc        1 MOL     -0.057674
     97 H41         5.6610    3.7480   -0.7080 ha        1 MOL      0.113035
     98 H42         3.0530    6.9650    0.4910 ha        1 MOL      0.113035
     99 H43         7.5960    5.2480   -0.3670 ha        1 MOL      0.155791
    100 H44         4.9650    8.3690    0.8140 ha        1 MOL      0.155791
    101 H45         7.1660    8.5670    0.7520 ho        1 MOL      0.347463
    102 N10         0.3620    3.0270    1.5750 n         1 MOL     -0.559709
    103 C34        -1.0020    2.5240    1.5640 c3        1 MOL      0.009392
    104 C35        -1.9720    3.5110    0.8740 c         1 MOL      0.718531
    105 O15        -2.0830    4.6080    1.3690 o         1 MOL     -0.587244
    106 C36        -1.4360    2.1580    3.0410 c3        1 MOL     -0.037197
    107 C37        -0.5210    0.9980    3.5060 c3        1 MOL      0.161240
    108 C38        -2.8620    1.6850    3.1130 c3        1 MOL     -0.028219
    109 C39        -0.7170    0.7810    5.0250 c3        1 MOL     -0.403422
    110 H46         0.5480    3.8510    2.1260 hn        1 MOL      0.331304
    111 H47        -1.1190    1.6160    0.9820 h1        1 MOL      0.090481
    112 H48        -1.3370    3.0740    3.6260 hc        1 MOL      0.047127
    113 H49         0.5470    1.1920    3.4240 hc        1 MOL      0.035806
    114 H50        -0.8390    0.1400    2.9160 hc        1 MOL      0.035806
    115 H51        -3.2590    1.7150    4.1180 hc        1 MOL     -0.000983
    116 H52        -3.5530    2.2950    2.5280 hc        1 MOL     -0.000983
    117 H53        -3.0130    0.6970    2.6890 hc        1 MOL     -0.000983
    118 H54        -0.0280    0.0620    5.4800 hc        1 MOL      0.096107
    119 H55        -0.5700    1.7390    5.5130 hc        1 MOL      0.096107
    120 H56        -1.7020    0.3520    5.1830 hc        1 MOL      0.096107
    121 N11        -2.6410    3.1680   -0.1850 n         1 MOL     -0.533380
    122 C40        -3.7400    4.0930   -0.6690 c3        1 MOL      0.089529
    123 C41        -5.1460    3.6630   -0.1610 c         1 MOL      0.395760
    124 O16        -5.3680    2.5250    0.3240 o         1 MOL     -0.277988
    125 C42        -3.6900    3.9650   -2.2130 c3        1 MOL     -0.138821
    126 O17        -3.9710    2.6980   -2.7480 oh        1 MOL     -0.448096
    127 H57        -2.6190    2.2060   -0.4980 hn        1 MOL      0.323869
    128 H58        -3.5870    5.1290   -0.3700 h1        1 MOL      0.093948
    129 H59        -2.7360    4.2510   -2.6570 h1        1 MOL      0.086894
    130 H60        -4.3920    4.6910   -2.6290 h1        1 MOL      0.086894
    131 H61        -3.9370    2.8290   -3.6980 ho        1 MOL      0.401437
    132 N12        -6.1940    4.4210   -0.5430 n         1 MOL     -0.443446
    133 C43        -7.5550    4.1020   -0.2090 c3        1 MOL      0.108671
    134 C44        -7.9550    2.7370   -0.7990 c         1 MOL      0.470842
    135 O18        -8.5310    1.8730   -0.1010 o         1 MOL     -0.529377
    136 C45        -8.5020    5.2480   -0.6280 c3        1 MOL     -0.221071
    137 H62        -6.0370    5.2930   -1.0400 hn        1 MOL      0.299900
    138 H63        -7.7350    3.9070    0.8490 h1        1 MOL      0.075443
    139 H64        -8.1330    6.2160   -0.3080 hc        1 MOL      0.069670
    140 H65        -8.4960    5.2390   -1.7190 hc        1 MOL      0.069670
    141 H66        -9.5230    5.0730   -0.2880 hc        1 MOL      0.069670
    142 N13        -7.4410    2.4510   -1.9520 n         1 MOL     -0.348560
    143 C46        -7.7270    1.1870   -2.6780 c3        1 MOL      0.016484
    144 C47        -7.0910   -0.0020   -1.9930 c         1 MOL      0.434016
    145 O19        -7.6600   -1.1040   -2.0070 o         1 MOL     -0.516390
    146 C48        -7.2550    1.4660   -4.1570 c3        1 MOL     -0.202860
    147 H67        -6.8910    3.2070   -2.3640 hn        1 MOL      0.259663
    148 H68        -8.7960    0.9910   -2.6680 h1        1 MOL      0.116349
    149 H69        -7.2160    0.5350   -4.7340 hc        1 MOL      0.060266
    150 H70        -7.8830    2.1580   -4.7160 hc        1 MOL      0.060266
    151 H71        -6.2870    1.9510   -4.0780 hc        1 MOL      0.060266
    152 N14        -5.9010    0.1670   -1.3590 n         1 MOL     -0.079826
    153 C49        -5.2830   -0.8570   -0.4750 c3        1 MOL     -0.272504
    154 C50        -6.0520   -0.8990    0.9010 c         1 MOL      0.614229
    155 O20        -6.3180   -1.9970    1.3470 o         1 MOL     -0.581824
    156 C51        -3.7740   -0.6650   -0.2740 c3        1 MOL     -0.030731
    157 C52        -3.0100   -0.8660   -1.6270 c3        1 MOL      0.243351
    158 C53        -1.5190   -0.4930   -1.4200 c         1 MOL      0.659896
    159 O21        -0.8370   -1.0410   -0.4990 o         1 MOL     -0.744639
    160 O22        -0.9600    0.2240   -2.2380 o         1 MOL     -0.744639
    161 H72        -5.5370    1.0910   -1.5210 hn        1 MOL      0.112490
    162 H73        -5.2610   -1.8350   -0.9540 h1        1 MOL      0.112648
    163 H74        -3.4150   -1.4700    0.3690 hc        1 MOL      0.003863
    164 H75        -3.5500    0.3290    0.1040 hc        1 MOL      0.003863
    165 H76        -3.4400   -0.1690   -2.3490 hc        1 MOL     -0.097250
    166 H77        -3.1410   -1.8940   -1.9540 hc        1 MOL     -0.097250
    167 N15        -6.4300    0.2200    1.4590 n         1 MOL     -0.130359
    168 C54        -7.3340    0.2640    2.5740 c3        1 MOL     -0.353836
    169 H78        -8.3610    0.2100    2.2110 h1        1 MOL      0.128379
    170 H79        -7.1380   -0.5800    3.2350 h1        1 MOL      0.128379
    171 H80        -7.1920    1.1960    3.1220 h1        1 MOL      0.128379
    172 H81        -6.2170    1.0890    0.9790 hn        1 MOL      0.106528
    173 Ca1         1.6070   -0.2980   -1.7810 Ca        1 MOL      1.808960
    174 O23         1.7380    0.3510   -4.4050 oh        1 MOL     -0.918776
    175 H82         1.1960    0.2200   -5.1810 ho        1 MOL      0.440968
    176 H83         2.5300    0.7790   -4.7330 ho        1 MOL      0.440968
@<TRIPOS>BOND
     1    1    2 1   
     2    1    4 1   
     3    1    5 1   
     4    1    6 1   
     5    2    3 2   
     6    2    7 1   
     7    7    8 1   
     8    7   15 1   
     9    8    9 1   
    10    8   11 1   
    11    8   16 1   
    12    9   10 2   
    13    9   19 1   
    14   11   12 1   
    15   11   17 1   
    16   11   18 1   
    17   12   13 1   
    18   12   14 1   
    19   19   20 1   
    20   19   28 1   
    21   20   21 1   
    22   20   23 1   
    23   20   29 1   
    24   21   22 2   
    25   21   41 1   
    26   23   24 1   
    27   23   30 1   
    28   23   31 1   
    29   24   25 1   
    30   24   32 1   
    31   24   33 1   
    32   25   26 1   
    33   25   34 1   
    34   25   35 1   
    35   26   27 1   
    36   26   36 1   
    37   26   37 1   
    38   27   38 1   
    39   27   39 1   
    40   27   40 1   
    41   41   42 1   
    42   41   49 1   
    43   42   43 1   
    44   42   45 1   
    45   42   50 1   
    46   43   44 2   
    47   43   53 1   
    48   45   46 1   
    49   45   51 1   
    50   45   52 1   
    51   46   47 1   
    52   46   48 1   
    53   53   54 1   
    54   53   57 1   
    55   54   55 1   
    56   54   58 1   
    57   54   59 1   
    58   55   56 2   
    59   55   60 1   
    60   60   61 1   
    61   60   68 1   
    62   61   62 1   
    63   61   64 1   
    64   61   69 1   
    65   62   63 2   
    66   62   74 1   
    67   64   65 1   
    68   64   70 1   
    69   64   71 1   
    70   65   66 1   
    71   65   67 2   
    72   66   72 1   
    73   66   73 1   
    74   74   75 1   
    75   74   78 1   
    76   75   76 1   
    77   75   79 1   
    78   75   80 1   
    79   76   77 2   
    80   76   81 1   
    81   81   82 1   
    82   81   93 1   
    83   82   83 1   
    84   82   85 1   
    85   82   94 1   
    86   83   84 2   
    87   83  102 1   
    88   85   86 1   
    89   85   95 1   
    90   85   96 1   
    91   86   87 ar  
    92   86   88 ar  
    93   87   89 ar  
    94   87   97 1   
    95   88   90 ar  
    96   88   98 1   
    97   89   91 ar  
    98   89   99 1   
    99   90   91 ar  
   100   90  100 1   
   101   91   92 1   
   102   92  101 1   
   103  102  103 1   
   104  102  110 1   
   105  103  104 1   
   106  103  106 1   
   107  103  111 1   
   108  104  105 2   
   109  104  121 1   
   110  106  107 1   
   111  106  108 1   
   112  106  112 1   
   113  107  109 1   
   114  107  113 1   
   115  107  114 1   
   116  108  115 1   
   117  108  116 1   
   118  108  117 1   
   119  109  118 1   
   120  109  119 1   
   121  109  120 1   
   122  121  122 1   
   123  121  127 1   
   124  122  123 1   
   125  122  125 1   
   126  122  128 1   
   127  123  124 2   
   128  123  132 1   
   129  125  126 1   
   130  125  129 1   
   131  125  130 1   
   132  126  131 1   
   133  132  133 1   
   134  132  137 1   
   135  133  134 1   
   136  133  136 1   
   137  133  138 1   
   138  134  135 2   
   139  134  142 1   
   140  136  139 1   
   141  136  140 1   
   142  136  141 1   
   143  142  143 1   
   144  142  147 1   
   145  143  144 1   
   146  143  146 1   
   147  143  148 1   
   148  144  145 2   
   149  144  152 1   
   150  146  149 1   
   151  146  150 1   
   152  146  151 1   
   153  152  153 1   
   154  152  161 1   
   155  153  154 1   
   156  153  156 1   
   157  153  162 1   
   158  154  155 2   
   159  154  167 1   
   160  156  157 1   
   161  156  163 1   
   162  156  164 1   
   163  157  158 1   
   164  157  165 1   
   165  157  166 1   
   166  158  159 1   
   167  158  160 1   
   168  167  168 1   
   169  167  172 1   
   170  168  169 1   
   171  168  170 1   
   172  168  171 1   
   173  174  175 1   
   174  174  176 1   
@<TRIPOS>SUBSTRUCTURE
     1 MOL         1 TEMP              0 ****  ****    0 ROOT
