@<TRIPOS>MOLECULE
MOL
  176   174     1     0     0
SMALL
resp


@<TRIPOS>ATOM
      1 C1          2.4850    4.0010    5.1130 c3        1 MOL     -0.284323
      2 C2          1.8200    3.4680    3.8150 c         1 MOL      0.713880
      3 O1          2.6060    2.9160    3.0400 o         1 MOL     -0.570572
      4 H1          2.8190    5.0270    4.9550 hc        1 MOL      0.074515
      5 H2          1.7620    3.9770    5.9290 hc        1 MOL      0.074515
      6 H3          3.3420    3.3760    5.3670 hc        1 MOL      0.074515
      7 N1          0.4950    3.7030    3.5860 n         1 MOL     -0.697802
      8 C3         -0.0850    3.3010    2.3050 c3        1 MOL      0.180233
      9 C4         -0.0880    4.3950    1.2320 c         1 MOL      0.597834
     10 O2         -0.1680    5.5950    1.6300 o         1 MOL     -0.608816
     11 C5         -1.5610    2.7960    2.4880 c3        1 MOL     -0.362178
     12 C6         -2.0670    1.8460    1.4020 c         1 MOL      0.886599
     13 O3         -2.4000    0.6300    1.6560 o         1 MOL     -0.824867
     14 O4         -2.2060    2.2360    0.2300 o         1 MOL     -0.824867
     15 H4         -0.0540    4.0420    4.3630 hn        1 MOL      0.374960
     16 H5          0.5560    2.4660    1.9890 h1        1 MOL     -0.007234
     17 H6         -2.1990    3.6650    2.6020 hc        1 MOL      0.114863
     18 H7         -1.6130    2.2490    3.4350 hc        1 MOL      0.114863
     19 N2         -0.0480    4.1440   -0.0520 n         1 MOL     -0.388043
     20 C7         -0.0130    5.2150   -1.1140 c3        1 MOL      0.061295
     21 C8         -1.1020    5.1340   -2.1080 c         1 MOL      0.468312
     22 O5         -1.3280    6.1490   -2.8080 o         1 MOL     -0.579981
     23 C9          1.3910    5.4120   -1.6850 c3        1 MOL     -0.072924
     24 C10         2.4740    5.7960   -0.5960 c3        1 MOL      0.176896
     25 C11         2.3560    7.1370    0.1110 c3        1 MOL     -0.224356
     26 C12         3.6810    7.6770    0.6260 c3        1 MOL     -0.028494
     27 N3          4.1870    6.8430    1.7100 n4        1 MOL     -0.243491
     28 H8         -0.0310    3.1560   -0.2720 hn        1 MOL      0.264376
     29 H9         -0.2030    6.1650   -0.5980 h1        1 MOL      0.073613
     30 H10         1.4690    6.1620   -2.4710 hc        1 MOL      0.038586
     31 H11         1.5690    4.4240   -2.1100 hc        1 MOL      0.038586
     32 H12         3.4160    5.5820   -1.1090 hc        1 MOL     -0.021607
     33 H13         2.3550    5.0280    0.1660 hc        1 MOL     -0.021607
     34 H14         1.5580    7.1100    0.8580 hc        1 MOL      0.099849
     35 H15         2.0570    7.8290   -0.6800 hc        1 MOL      0.099849
     36 H16         3.5010    8.6800    1.0430 hx        1 MOL      0.100984
     37 H17         4.4410    7.8430   -0.1400 hx        1 MOL      0.100984
     38 H18         5.1390    7.0410    1.9960 hn        1 MOL      0.300795
     39 H19         3.5860    6.7910    2.5080 hn        1 MOL      0.300795
     40 H20         4.2370    5.8840    1.4050 hn        1 MOL      0.300795
     41 N4         -1.9880    4.1430   -2.1520 n         1 MOL     -0.176857
     42 C13        -3.0670    3.9240   -3.1220 c3        1 MOL      0.020244
     43 C14        -4.4430    3.8260   -2.4130 c         1 MOL      0.347941
     44 O6         -5.5190    4.0450   -2.9890 o         1 MOL     -0.512029
     45 C15        -2.9060    2.6170   -3.9050 c3        1 MOL     -0.080928
     46 C16        -2.5250    1.2950   -3.0940 c         1 MOL      0.579107
     47 O7         -1.4450    0.6790   -3.3180 o         1 MOL     -0.682180
     48 O8         -3.2800    0.8660   -2.1830 o         1 MOL     -0.682180
     49 H21        -1.8410    3.5340   -1.3640 hn        1 MOL      0.123437
     50 H22        -3.0400    4.7010   -3.8750 h1        1 MOL      0.117582
     51 H23        -2.1230    2.8210   -4.6310 hc        1 MOL      0.042237
     52 H24        -3.7890    2.5020   -4.5440 hc        1 MOL      0.042237
     53 N5         -4.4910    3.4520   -1.1320 n         1 MOL     -0.239684
     54 C17        -5.7280    3.5070   -0.3520 c3        1 MOL     -0.075100
     55 C18        -6.4950    2.1450   -0.2840 c         1 MOL      0.429256
     56 O9         -7.6930    2.1370   -0.0310 o         1 MOL     -0.551231
     57 H25        -3.6150    3.2250   -0.6920 hn        1 MOL      0.222710
     58 H26        -6.3410    4.2640   -0.8400 h1        1 MOL      0.087531
     59 H27        -5.5840    3.7900    0.6940 h1        1 MOL      0.087531
     60 N6         -5.8370    1.0690   -0.6790 n         1 MOL     -0.095397
     61 C19        -6.4770   -0.2090   -0.7810 c3        1 MOL      0.019964
     62 C20        -6.5140   -1.0830    0.5170 c         1 MOL      0.359088
     63 O10        -7.2780   -2.0130    0.6100 o         1 MOL     -0.417326
     64 C21        -5.9450   -0.9850   -1.9490 c3        1 MOL     -0.306663
     65 C22        -4.5630   -1.5610   -1.6650 c         1 MOL      0.868493
     66 N7         -3.9270   -1.9990   -2.6950 n         1 MOL     -0.618168
     67 O11        -4.0060   -1.4250   -0.5610 o         1 MOL     -0.806682
     68 H28        -4.8910    1.1240   -1.0420 hn        1 MOL      0.192687
     69 H29        -7.5470   -0.1910   -0.9800 h1        1 MOL      0.099703
     70 H30        -5.8190   -0.3340   -2.8170 hc        1 MOL      0.096444
     71 H31        -6.5620   -1.8640   -2.1360 hc        1 MOL      0.096444
     72 H32        -4.4820   -2.0400   -3.5340 hn        1 MOL      0.287869
     73 H33        -2.9910   -2.3790   -2.6000 hn        1 MOL      0.287869
     74 N8         -5.9210   -0.5900    1.6720 n         1 MOL     -0.270783
     75 C23        -5.9960   -1.1650    2.9790 c3        1 MOL     -0.280358
     76 C24        -5.0790   -2.3220    3.3130 c         1 MOL      0.547244
     77 O12        -5.1760   -2.9410    4.3630 o         1 MOL     -0.552996
     78 H34        -5.2490    0.1570    1.5270 hn        1 MOL      0.228162
     79 H35        -7.0260   -1.5010    3.1130 h1        1 MOL      0.133835
     80 H36        -5.8530   -0.3260    3.6530 h1        1 MOL      0.133835
     81 N9         -4.0910   -2.5340    2.4120 n         1 MOL     -0.251720
     82 C25        -2.9370   -3.4510    2.5510 c3        1 MOL     -0.139762
     83 C26        -1.6130   -2.8540    1.9870 c         1 MOL      0.549758
     84 O13        -1.6560   -2.1900    0.9590 o         1 MOL     -0.592038
     85 C27        -3.2180   -4.8460    1.9380 c3        1 MOL     -0.051883
     86 C28        -3.9340   -4.8870    0.5670 ca        1 MOL     -0.270914
     87 C29        -3.2320   -5.0200   -0.6180 ca        1 MOL      0.171277
     88 C30        -5.3550   -4.8950    0.5260 ca        1 MOL      0.171277
     89 C31        -3.9090   -5.1030   -1.8570 ca        1 MOL     -0.626098
     90 C32        -5.9900   -4.7930   -0.7320 ca        1 MOL     -0.626098
     91 C33        -5.3280   -4.9400   -1.9010 ca        1 MOL      0.680220
     92 O14        -5.9920   -4.8480   -3.1240 oh        1 MOL     -0.530551
     93 H37        -4.1690   -1.9260    1.6100 hn        1 MOL      0.389516
     94 H38        -2.6940   -3.5420    3.6110 h1        1 MOL      0.084576
     95 H39        -3.9520   -5.3070    2.5960 hc        1 MOL      0.071657
     96 H40        -2.3400   -5.4850    2.0060 hc        1 MOL      0.071657
     97 H41        -2.1620   -5.1660   -0.5550 ha        1 MOL      0.095488
     98 H42        -5.8750   -4.8010    1.4670 ha        1 MOL      0.095488
     99 H43        -3.4280   -5.2870   -2.8100 ha        1 MOL      0.205523
    100 H44        -7.0740   -4.8580   -0.7430 ha        1 MOL      0.205523
    101 H45        -5.3700   -4.7820   -3.8530 ho        1 MOL      0.332298
    102 N10        -0.4390   -3.1290    2.5900 n         1 MOL     -0.341375
    103 C34         0.9190   -2.5860    2.2790 c3        1 MOL      0.075556
    104 C35         1.7030   -3.5990    1.4870 c         1 MOL      0.414069
    105 O15         1.7710   -4.7840    1.8720 o         1 MOL     -0.553252
    106 C36         1.7480   -2.1650    3.5750 c3        1 MOL      0.265073
    107 C37         0.9100   -1.2230    4.5340 c3        1 MOL     -0.175786
    108 C38         3.1450   -1.5930    3.2400 c3        1 MOL     -0.509491
    109 C39         0.5540    0.1500    3.7750 c3        1 MOL      0.123913
    110 H46        -0.4360   -3.6680    3.4440 hn        1 MOL      0.253411
    111 H47         0.8560   -1.6540    1.7140 h1        1 MOL      0.061163
    112 H48         1.8560   -3.1170    4.1100 hc        1 MOL     -0.021475
    113 H49         1.3300   -1.0570    5.5250 hc        1 MOL      0.025676
    114 H50        -0.0440   -1.7030    4.7310 hc        1 MOL      0.025676
    115 H51         2.9930   -0.8170    2.4910 hc        1 MOL      0.125900
    116 H52         3.7800   -1.1930    4.0290 hc        1 MOL      0.125900
    117 H53         3.6870   -2.4350    2.8200 hc        1 MOL      0.125900
    118 H54        -0.2100    0.6630    4.3670 hc        1 MOL     -0.015770
    119 H55         1.4130    0.8160    3.7380 hc        1 MOL     -0.015770
    120 H56         0.0570   -0.0620    2.8350 hc        1 MOL     -0.015770
    121 N11         2.3720   -3.1100    0.4250 n         1 MOL     -0.135589
    122 C40         3.3220   -3.8700   -0.4550 c3        1 MOL      0.059080
    123 C41         4.8030   -3.5990   -0.0080 c         1 MOL      0.430571
    124 O16         5.2090   -2.6050    0.6010 o         1 MOL     -0.349052
    125 C42         3.1870   -3.4990   -1.9360 c3        1 MOL     -0.329880
    126 O17         3.7730   -2.2600   -2.2170 oh        1 MOL     -0.262504
    127 H57         2.2800   -2.1240    0.2600 hn        1 MOL      0.110495
    128 H58         3.1350   -4.9310   -0.3140 h1        1 MOL      0.067237
    129 H59         2.1050   -3.5400   -2.1180 h1        1 MOL      0.143024
    130 H60         3.5440   -4.2910   -2.6010 h1        1 MOL      0.143024
    131 H61         3.4420   -2.0010   -3.0780 ho        1 MOL      0.369021
    132 N12         5.7170   -4.4480   -0.5520 n         1 MOL     -0.461529
    133 C43         7.1650   -4.2760   -0.6020 c3        1 MOL      0.121446
    134 C44         7.5320   -2.9770   -1.2740 c         1 MOL      0.412798
    135 O18         8.2550   -2.1440   -0.7240 o         1 MOL     -0.494392
    136 C45         7.8210   -5.4430   -1.3740 c3        1 MOL     -0.276377
    137 H62         5.4320   -5.1400   -1.2250 hn        1 MOL      0.273007
    138 H63         7.5140   -4.1900    0.4350 h1        1 MOL      0.092856
    139 H64         8.9100   -5.3130   -1.3790 hc        1 MOL      0.089070
    140 H65         7.6870   -6.4100   -0.8970 hc        1 MOL      0.089070
    141 H66         7.4970   -5.3380   -2.4060 hc        1 MOL      0.089070
    142 N13         6.9420   -2.6520   -2.4260 n         1 MOL     -0.284808
    143 C46         7.0810   -1.3910   -3.0790 c3        1 MOL     -0.025901
    144 C47         6.5550   -0.1780   -2.2340 c         1 MOL      0.367672
    145 O19         7.2970    0.8250   -2.2630 o         1 MOL     -0.511449
    146 C48         6.4130   -1.4790   -4.4220 c3        1 MOL     -0.169694
    147 H67         6.2280   -3.2760   -2.7930 hn        1 MOL      0.239090
    148 H68         8.1430   -1.2820   -3.2950 h1        1 MOL      0.129966
    149 H69         6.8590   -2.1920   -5.1170 hc        1 MOL      0.050029
    150 H70         5.4220   -1.9180   -4.3370 hc        1 MOL      0.050029
    151 H71         6.3190   -0.5590   -4.9940 hc        1 MOL      0.050029
    152 N14         5.4840   -0.2940   -1.4430 n         1 MOL      0.059471
    153 C49         5.0950    0.8150   -0.5240 c3        1 MOL     -0.139399
    154 C50         6.0200    0.9570    0.6930 c         1 MOL      0.462150
    155 O20         6.3180    2.0680    1.0800 o         1 MOL     -0.586794
    156 C51         3.6770    0.5900   -0.0970 c3        1 MOL      0.053791
    157 C52         2.8220    0.9970   -1.2800 c3        1 MOL     -0.155562
    158 C53         1.3510    0.6930   -0.9020 c         1 MOL      0.700296
    159 O21         0.4180    1.5010   -1.0040 o         1 MOL     -0.696396
    160 O22         1.0280   -0.4680   -0.4180 o         1 MOL     -0.696396
    161 H72         4.8460   -1.0720   -1.5640 hn        1 MOL     -0.091312
    162 H73         5.1240    1.7020   -1.1630 h1        1 MOL      0.081549
    163 H74         3.4590    1.2000    0.7780 hc        1 MOL      0.033157
    164 H75         3.5520   -0.4710    0.1030 hc        1 MOL      0.033157
    165 H76         3.0480    0.3650   -2.1480 hc        1 MOL      0.035102
    166 H77         2.9480    2.0330   -1.5850 hc        1 MOL      0.035102
    167 N15         6.5380   -0.1330    1.1950 n         1 MOL     -0.075993
    168 C54         7.5800   -0.1810    2.2870 c3        1 MOL     -0.210678
    169 H78         7.9260    0.8300    2.5040 h1        1 MOL      0.094727
    170 H79         7.1450   -0.6160    3.1870 h1        1 MOL      0.094727
    171 H80         8.4230   -0.7900    1.9600 h1        1 MOL      0.094727
    172 H81         6.2370   -1.0250    0.8220 hn        1 MOL      0.108962
    173 Ca1        -1.6120   -0.2750   -0.6610 Ca        1 MOL      1.744179
    174 O23        -0.7970   -2.4220   -2.1420 oh        1 MOL     -0.834924
    175 H82        -0.5610   -3.3480   -2.2030 ho        1 MOL      0.398993
    176 H83        -1.0150   -2.1700   -3.0460 ho        1 MOL      0.398993
@<TRIPOS>BOND
     1    1    2 1   
     2    1    4 1   
     3    1    5 1   
     4    1    6 1   
     5    2    3 2   
     6    2    7 1   
     7    7    8 1   
     8    7   15 1   
     9    8    9 1   
    10    8   11 1   
    11    8   16 1   
    12    9   10 2   
    13    9   19 1   
    14   11   12 1   
    15   11   17 1   
    16   11   18 1   
    17   12   13 1   
    18   12   14 1   
    19   19   20 1   
    20   19   28 1   
    21   20   21 1   
    22   20   23 1   
    23   20   29 1   
    24   21   22 2   
    25   21   41 1   
    26   23   24 1   
    27   23   30 1   
    28   23   31 1   
    29   24   25 1   
    30   24   32 1   
    31   24   33 1   
    32   25   26 1   
    33   25   34 1   
    34   25   35 1   
    35   26   27 1   
    36   26   36 1   
    37   26   37 1   
    38   27   38 1   
    39   27   39 1   
    40   27   40 1   
    41   41   42 1   
    42   41   49 1   
    43   42   43 1   
    44   42   45 1   
    45   42   50 1   
    46   43   44 2   
    47   43   53 1   
    48   45   46 1   
    49   45   51 1   
    50   45   52 1   
    51   46   47 1   
    52   46   48 1   
    53   53   54 1   
    54   53   57 1   
    55   54   55 1   
    56   54   58 1   
    57   54   59 1   
    58   55   56 2   
    59   55   60 1   
    60   60   61 1   
    61   60   68 1   
    62   61   62 1   
    63   61   64 1   
    64   61   69 1   
    65   62   63 2   
    66   62   74 1   
    67   64   65 1   
    68   64   70 1   
    69   64   71 1   
    70   65   66 1   
    71   65   67 2   
    72   66   72 1   
    73   66   73 1   
    74   74   75 1   
    75   74   78 1   
    76   75   76 1   
    77   75   79 1   
    78   75   80 1   
    79   76   77 2   
    80   76   81 1   
    81   81   82 1   
    82   81   93 1   
    83   82   83 1   
    84   82   85 1   
    85   82   94 1   
    86   83   84 2   
    87   83  102 1   
    88   85   86 1   
    89   85   95 1   
    90   85   96 1   
    91   86   87 ar  
    92   86   88 ar  
    93   87   89 ar  
    94   87   97 1   
    95   88   90 ar  
    96   88   98 1   
    97   89   91 ar  
    98   89   99 1   
    99   90   91 ar  
   100   90  100 1   
   101   91   92 1   
   102   92  101 1   
   103  102  103 1   
   104  102  110 1   
   105  103  104 1   
   106  103  106 1   
   107  103  111 1   
   108  104  105 2   
   109  104  121 1   
   110  106  107 1   
   111  106  108 1   
   112  106  112 1   
   113  107  109 1   
   114  107  113 1   
   115  107  114 1   
   116  108  115 1   
   117  108  116 1   
   118  108  117 1   
   119  109  118 1   
   120  109  119 1   
   121  109  120 1   
   122  121  122 1   
   123  121  127 1   
   124  122  123 1   
   125  122  125 1   
   126  122  128 1   
   127  123  124 2   
   128  123  132 1   
   129  125  126 1   
   130  125  129 1   
   131  125  130 1   
   132  126  131 1   
   133  132  133 1   
   134  132  137 1   
   135  133  134 1   
   136  133  136 1   
   137  133  138 1   
   138  134  135 2   
   139  134  142 1   
   140  136  139 1   
   141  136  140 1   
   142  136  141 1   
   143  142  143 1   
   144  142  147 1   
   145  143  144 1   
   146  143  146 1   
   147  143  148 1   
   148  144  145 2   
   149  144  152 1   
   150  146  149 1   
   151  146  150 1   
   152  146  151 1   
   153  152  153 1   
   154  152  161 1   
   155  153  154 1   
   156  153  156 1   
   157  153  162 1   
   158  154  155 2   
   159  154  167 1   
   160  156  157 1   
   161  156  163 1   
   162  156  164 1   
   163  157  158 1   
   164  157  165 1   
   165  157  166 1   
   166  158  159 1   
   167  158  160 1   
   168  167  168 1   
   169  167  172 1   
   170  168  169 1   
   171  168  170 1   
   172  168  171 1   
   173  174  175 1   
   174  174  176 1   
@<TRIPOS>SUBSTRUCTURE
     1 MOL         1 TEMP              0 ****  ****    0 ROOT
