@<TRIPOS>MOLECULE
MOL
  179   176     1     0     0
SMALL
resp


@<TRIPOS>ATOM
      1 C1          1.0350    3.7440    5.5150 c3        1 MOL     -0.160352
      2 C2          0.5280    3.1990    4.1870 c         1 MOL      0.634864
      3 O1          1.2760    3.2280    3.1900 o         1 MOL     -0.592548
      4 H1          2.0310    4.1650    5.3780 hc        1 MOL      0.044878
      5 H2          0.3590    4.5220    5.8700 hc        1 MOL      0.044878
      6 H3          1.0790    2.9370    6.2460 hc        1 MOL      0.044878
      7 N1         -0.7220    2.7320    4.0420 n         1 MOL     -0.487712
      8 C3         -1.3830    2.2810    2.7730 c3        1 MOL      0.153803
      9 C4         -1.7270    3.5190    1.9040 c         1 MOL      0.354590
     10 O2         -2.7250    4.1830    2.1230 o         1 MOL     -0.466359
     11 C5         -2.6700    1.5040    3.0920 c3        1 MOL     -0.445929
     12 C6         -3.3370    0.8600    1.8540 c         1 MOL      0.625115
     13 O3         -2.8090    0.9760    0.6750 o         1 MOL     -0.578436
     14 O4         -4.3950    0.2470    2.0290 o         1 MOL     -0.578436
     15 H4         -1.4000    2.8260    4.7870 hn        1 MOL      0.292309
     16 H5         -0.6840    1.6310    2.2340 h1        1 MOL     -0.013281
     17 H6         -3.3570    2.2150    3.5560 hc        1 MOL      0.139289
     18 H7         -2.3530    0.6910    3.7430 hc        1 MOL      0.139289
     19 N2         -0.8100    3.9150    1.0270 n         1 MOL     -0.015755
     20 C7         -0.7060    5.2580    0.3980 c3        1 MOL     -0.362994
     21 C8         -1.9000    5.5200   -0.5360 c         1 MOL      0.603974
     22 O5         -2.1050    6.6940   -0.8160 o         1 MOL     -0.586518
     23 C9          0.6250    5.4970   -0.3120 c3        1 MOL      0.250730
     24 C10         1.0070    6.9530   -0.4090 c3        1 MOL      0.000646
     25 C11         2.5190    7.0530   -0.7600 c3        1 MOL     -0.023042
     26 C12         2.9380    8.6010   -0.8620 c3        1 MOL      0.109479
     27 N3          4.4410    8.6870   -0.9880 n4        1 MOL     -0.340693
     28 H8         -0.0340    3.2950    0.8240 hn        1 MOL      0.218161
     29 H9         -0.8480    5.9490    1.2300 h1        1 MOL      0.137755
     30 H10         0.6620    5.0710   -1.3160 hc        1 MOL     -0.044735
     31 H11         1.4580    5.0480    0.2370 hc        1 MOL     -0.044735
     32 H12         0.8220    7.3340    0.6020 hc        1 MOL      0.019101
     33 H13         0.3590    7.4260   -1.1480 hc        1 MOL      0.019101
     34 H14         2.6100    6.5800   -1.7430 hc        1 MOL      0.027042
     35 H15         3.0900    6.5500    0.0250 hc        1 MOL      0.027042
     36 H16         2.5700    9.1290    0.0180 hx        1 MOL      0.056033
     37 H17         2.5560    9.0240   -1.8030 hx        1 MOL      0.056033
     38 H18         4.8060    7.9440   -1.5710 hn        1 MOL      0.319813
     39 H19         4.6810    9.4750   -1.5670 hn        1 MOL      0.319813
     40 H20         4.8670    8.7010   -0.0780 hn        1 MOL      0.319813
     41 N4         -2.5170    4.5110   -1.1720 n         1 MOL     -0.219678
     42 C13        -3.7490    4.6350   -1.9330 c3        1 MOL      0.021690
     43 C14        -5.0130    4.0500   -1.2010 c         1 MOL      0.374219
     44 O6         -6.1160    3.9700   -1.7890 o         1 MOL     -0.501441
     45 C15        -3.4760    4.0160   -3.3590 c3        1 MOL     -0.145810
     46 C16        -3.0850    2.5110   -3.2950 c         1 MOL      0.754380
     47 O7         -3.3550    1.9000   -2.1990 o         1 MOL     -0.729787
     48 O8         -2.5140    1.9610   -4.2460 o         1 MOL     -0.729787
     49 H21        -2.1620    3.5770   -0.9800 hn        1 MOL      0.013015
     50 H22        -3.9310    5.6830   -2.1240 h1        1 MOL      0.095191
     51 H23        -2.6770    4.5560   -3.8620 hc        1 MOL      0.040388
     52 H24        -4.3960    4.0680   -3.9350 hc        1 MOL      0.040388
     53 N5         -4.7180    3.4760    0.0300 n         1 MOL     -0.023171
     54 C17        -5.8470    2.9460    0.8240 c3        1 MOL     -0.236546
     55 C18        -6.5230    1.6190    0.2980 c         1 MOL      0.564046
     56 O9         -7.6790    1.3960    0.6230 o         1 MOL     -0.554775
     57 H25        -3.7810    3.3960    0.3850 hn        1 MOL     -0.031309
     58 H26        -6.6390    3.6920    0.8100 h1        1 MOL      0.115665
     59 H27        -5.5090    2.7440    1.8320 h1        1 MOL      0.115665
     60 N6         -5.8230    0.8420   -0.6090 n         1 MOL     -0.229778
     61 C19        -6.3890   -0.2760   -1.3860 c3        1 MOL     -0.015078
     62 C20        -6.4950   -1.5540   -0.5360 c         1 MOL      0.271619
     63 O10        -7.1750   -2.5420   -0.9370 o         1 MOL     -0.485588
     64 C21        -5.5640   -0.4340   -2.6540 c3        1 MOL     -0.196171
     65 C22        -4.2480   -1.1610   -2.4770 c         1 MOL      0.602435
     66 N7         -3.6840   -1.8660   -3.4610 n         1 MOL     -0.750470
     67 O11        -3.5410   -1.0450   -1.4830 o         1 MOL     -0.643217
     68 H28        -4.8360    1.0140   -0.7740 hn        1 MOL      0.214488
     69 H29        -7.3900    0.0580   -1.6500 h1        1 MOL      0.106349
     70 H30        -5.4350    0.5190   -3.1710 hc        1 MOL      0.101819
     71 H31        -6.1920   -1.0370   -3.3120 hc        1 MOL      0.101819
     72 H32        -4.2240   -2.0360   -4.2940 hn        1 MOL      0.359459
     73 H33        -2.7650   -2.2890   -3.3480 hn        1 MOL      0.359459
     74 N8         -5.7440   -1.5850    0.6180 n         1 MOL      0.127477
     75 C23        -5.8370   -2.5930    1.5810 c3        1 MOL     -0.378272
     76 C24        -4.5910   -3.4010    1.6900 c         1 MOL      0.837341
     77 O12        -4.5410   -4.4420    2.2810 o         1 MOL     -0.606977
     78 H34        -5.2780   -0.7580    0.9540 hn        1 MOL      0.088481
     79 H35        -6.6930   -3.2470    1.4360 h1        1 MOL      0.118533
     80 H36        -5.7980   -2.1840    2.5820 h1        1 MOL      0.118533
     81 N9         -3.4900   -2.8930    1.1630 n         1 MOL     -0.767870
     82 C25        -2.2270   -3.4960    0.9860 c3        1 MOL      0.674171
     83 C26        -0.9740   -2.5270    1.0220 c         1 MOL      0.216992
     84 O13        -0.9950   -1.4460    0.5210 o         1 MOL     -0.469363
     85 C27        -2.1730   -4.5280   -0.1950 c3        1 MOL     -0.226942
     86 C28        -3.3210   -5.4530   -0.2480 ca        1 MOL      0.035827
     87 C29        -4.3420   -5.1930   -1.1970 ca        1 MOL     -0.146210
     88 C30        -3.3300   -6.6770    0.5270 ca        1 MOL     -0.146210
     89 C31        -5.3780   -6.1200   -1.3370 ca        1 MOL     -0.297093
     90 C32        -4.4120   -7.5750    0.3880 ca        1 MOL     -0.297093
     91 C33        -5.4070   -7.2720   -0.5210 ca        1 MOL      0.375257
     92 O14        -6.4650   -8.1140   -0.6220 oh        1 MOL     -0.484860
     93 H37        -3.5630   -1.9960    0.7190 hn        1 MOL      0.356992
     94 H38        -2.1090   -4.0410    1.9300 h1        1 MOL     -0.075067
     95 H39        -1.3150   -5.1740   -0.0420 hc        1 MOL      0.033203
     96 H40        -2.1220   -4.0220   -1.1550 hc        1 MOL      0.033203
     97 H41        -4.2630   -4.2650   -1.7570 ha        1 MOL      0.133416
     98 H42        -2.5170   -6.8900    1.2010 ha        1 MOL      0.133416
     99 H43        -6.2200   -5.9600   -1.9900 ha        1 MOL      0.163039
    100 H44        -4.4590   -8.4720    1.0020 ha        1 MOL      0.163039
    101 H45        -6.2770   -8.9090   -0.1240 ho        1 MOL      0.344552
    102 N10         0.0970   -3.0030    1.6590 n         1 MOL     -0.561911
    103 C34         1.4160   -2.3350    1.7410 c3        1 MOL     -0.027582
    104 C35         2.5120   -3.2480    1.1360 c         1 MOL      0.564774
    105 O15         2.7800   -4.2810    1.6480 o         1 MOL     -0.549099
    106 C36         1.6650   -1.8440    3.2080 c3        1 MOL      0.245834
    107 C37         0.5580   -0.8810    3.7220 c3        1 MOL      0.008829
    108 C38         2.9520   -1.0310    3.2890 c3        1 MOL     -0.550544
    109 C39         0.4360   -0.8460    5.2780 c3        1 MOL     -0.299700
    110 H46        -0.1020   -3.8610    2.1620 hn        1 MOL      0.325881
    111 H47         1.4270   -1.3880    1.2110 h1        1 MOL      0.148942
    112 H48         1.6950   -2.7190    3.8510 hc        1 MOL     -0.006565
    113 H49        -0.4160   -1.3040    3.4630 hc        1 MOL      0.087020
    114 H50         0.6630    0.1180    3.2930 hc        1 MOL      0.087020
    115 H51         3.7420   -1.7180    3.0240 hc        1 MOL      0.140437
    116 H52         2.8810   -0.1470    2.6550 hc        1 MOL      0.140437
    117 H53         3.0890   -0.7330    4.3220 hc        1 MOL      0.140437
    118 H54        -0.4440   -0.2790    5.5720 hc        1 MOL      0.063699
    119 H55         0.2830   -1.8760    5.5900 hc        1 MOL      0.063699
    120 H56         1.3310   -0.4830    5.7910 hc        1 MOL      0.063699
    121 N11         3.1270   -2.8380    0.0480 n         1 MOL     -0.310885
    122 C40         4.1530   -3.5950   -0.6150 c3        1 MOL      0.063014
    123 C41         5.5810   -3.3170   -0.1120 c         1 MOL      0.467568
    124 O16         5.8890   -2.2890    0.5940 o         1 MOL     -0.442565
    125 C42         4.0450   -3.3390   -2.0930 c3        1 MOL     -0.137480
    126 O17         4.6420   -2.1020   -2.4340 oh        1 MOL     -0.415163
    127 H57         2.7290   -2.0160   -0.3980 hn        1 MOL      0.297357
    128 H58         4.0720   -4.6560   -0.3990 h1        1 MOL      0.059169
    129 H59         2.9590   -3.2880   -2.2080 h1        1 MOL      0.087663
    130 H60         4.5110   -4.1500   -2.6500 h1        1 MOL      0.087663
    131 H61         4.0130   -1.6720   -3.0110 ho        1 MOL      0.395518
    132 N12         6.5440   -4.1440   -0.5090 n         1 MOL     -0.363452
    133 C43         7.9420   -3.9430   -0.3060 c3        1 MOL      0.057052
    134 C44         8.4300   -2.5820   -0.8670 c         1 MOL      0.483933
    135 O18         9.3110   -1.9550   -0.3440 o         1 MOL     -0.494496
    136 C45         8.7920   -5.1150   -0.9490 c3        1 MOL     -0.240482
    137 H62         6.4230   -5.0360   -0.9560 hn        1 MOL      0.281488
    138 H63         8.2460   -4.0550    0.7390 h1        1 MOL      0.090305
    139 H64         8.5420   -6.0390   -0.4410 hc        1 MOL      0.079334
    140 H65         8.5340   -5.1910   -2.0060 hc        1 MOL      0.079334
    141 H66         9.8720   -4.9690   -0.8700 hc        1 MOL      0.079334
    142 N13         7.6940   -2.1490   -1.9460 n         1 MOL     -0.383934
    143 C46         7.8980   -0.8310   -2.5690 c3        1 MOL      0.096164
    144 C47         7.2950    0.3970   -1.7970 c         1 MOL      0.416752
    145 O19         7.7590    1.4840   -1.8280 o         1 MOL     -0.538688
    146 C48         7.4780   -0.7910   -4.0370 c3        1 MOL     -0.134998
    147 H67         6.9050   -2.6950   -2.2450 hn        1 MOL      0.274424
    148 H68         8.9620   -0.6290   -2.4780 h1        1 MOL      0.083188
    149 H69         6.4290   -0.6720   -4.2870 hc        1 MOL      0.038612
    150 H70         8.0580   -0.0530   -4.5880 hc        1 MOL      0.038612
    151 H71         7.7400   -1.7800   -4.4030 hc        1 MOL      0.038612
    152 N14         6.2400    0.0520   -1.0950 n         1 MOL      0.081537
    153 C49         5.4870    0.9450   -0.1650 c3        1 MOL     -0.315514
    154 C50         6.1020    1.0930    1.1950 c         1 MOL      0.578755
    155 O20         5.9030    2.1520    1.7860 o         1 MOL     -0.571078
    156 C51         4.0460    0.4380   -0.2270 c3        1 MOL      0.294411
    157 C52         2.8880    1.5000   -0.1150 c3        1 MOL     -0.160001
    158 C53         1.5120    0.9390   -0.3860 c         1 MOL      0.829579
    159 O21         0.5500    1.5850   -0.0050 o         1 MOL     -0.832235
    160 O22         1.3300   -0.1920   -0.9150 o         1 MOL     -0.832235
    161 H72         5.9160   -0.8970   -1.1670 hn        1 MOL     -0.261707
    162 H73         5.4480    1.9320   -0.6280 h1        1 MOL      0.101695
    163 H74         3.9080   -0.2960    0.5620 hc        1 MOL     -0.054569
    164 H75         3.9140    0.0550   -1.2510 hc        1 MOL     -0.054569
    165 H76         3.0970    2.3260   -0.7860 hc        1 MOL      0.042935
    166 H77         2.8880    1.9030    0.8970 hc        1 MOL      0.042935
    167 N15         6.8020    0.0680    1.7190 n         1 MOL     -0.200310
    168 C54         7.5320    0.0720    3.0070 c3        1 MOL     -0.253454
    169 H78         8.4810    0.5950    2.8840 h1        1 MOL      0.107740
    170 H79         6.9340    0.5790    3.7630 h1        1 MOL      0.107740
    171 H80         7.7220   -0.9540    3.3210 h1        1 MOL      0.107740
    172 H81         6.9280   -0.7510    1.1410 hn        1 MOL      0.223241
    173 Ca1        -1.3730    0.4250   -1.3590 Ca        1 MOL      1.796371
    174 O23        -0.6600   -2.0720   -2.3170 oh        1 MOL     -0.873720
    175 H82        -0.5000   -2.6190   -3.0890 ho        1 MOL      0.429066
    176 H83         0.0190   -2.3330   -1.6990 ho        1 MOL      0.429066
    177 O24         0.1140    1.5730   -3.3450 oh        1 MOL     -0.873720
    178 H84         0.6990    2.3190   -3.3030 ho        1 MOL      0.429066
    179 H85        -0.3300    1.6550   -4.1950 ho        1 MOL      0.429066
@<TRIPOS>BOND
     1    1    2 1   
     2    1    4 1   
     3    1    5 1   
     4    1    6 1   
     5    2    3 2   
     6    2    7 1   
     7    7    8 1   
     8    7   15 1   
     9    8    9 1   
    10    8   11 1   
    11    8   16 1   
    12    9   10 2   
    13    9   19 1   
    14   11   12 1   
    15   11   17 1   
    16   11   18 1   
    17   12   13 1   
    18   12   14 1   
    19   19   20 1   
    20   19   28 1   
    21   20   21 1   
    22   20   23 1   
    23   20   29 1   
    24   21   22 2   
    25   21   41 1   
    26   23   24 1   
    27   23   30 1   
    28   23   31 1   
    29   24   25 1   
    30   24   32 1   
    31   24   33 1   
    32   25   26 1   
    33   25   34 1   
    34   25   35 1   
    35   26   27 1   
    36   26   36 1   
    37   26   37 1   
    38   27   38 1   
    39   27   39 1   
    40   27   40 1   
    41   41   42 1   
    42   41   49 1   
    43   42   43 1   
    44   42   45 1   
    45   42   50 1   
    46   43   44 2   
    47   43   53 1   
    48   45   46 1   
    49   45   51 1   
    50   45   52 1   
    51   46   47 1   
    52   46   48 1   
    53   53   54 1   
    54   53   57 1   
    55   54   55 1   
    56   54   58 1   
    57   54   59 1   
    58   55   56 2   
    59   55   60 1   
    60   60   61 1   
    61   60   68 1   
    62   61   62 1   
    63   61   64 1   
    64   61   69 1   
    65   62   63 2   
    66   62   74 1   
    67   64   65 1   
    68   64   70 1   
    69   64   71 1   
    70   65   66 1   
    71   65   67 2   
    72   66   72 1   
    73   66   73 1   
    74   74   75 1   
    75   74   78 1   
    76   75   76 1   
    77   75   79 1   
    78   75   80 1   
    79   76   77 2   
    80   76   81 1   
    81   81   82 1   
    82   81   93 1   
    83   82   83 1   
    84   82   85 1   
    85   82   94 1   
    86   83   84 2   
    87   83  102 1   
    88   85   86 1   
    89   85   95 1   
    90   85   96 1   
    91   86   87 ar  
    92   86   88 ar  
    93   87   89 ar  
    94   87   97 1   
    95   88   90 ar  
    96   88   98 1   
    97   89   91 ar  
    98   89   99 1   
    99   90   91 ar  
   100   90  100 1   
   101   91   92 1   
   102   92  101 1   
   103  102  103 1   
   104  102  110 1   
   105  103  104 1   
   106  103  106 1   
   107  103  111 1   
   108  104  105 2   
   109  104  121 1   
   110  106  107 1   
   111  106  108 1   
   112  106  112 1   
   113  107  109 1   
   114  107  113 1   
   115  107  114 1   
   116  108  115 1   
   117  108  116 1   
   118  108  117 1   
   119  109  118 1   
   120  109  119 1   
   121  109  120 1   
   122  121  122 1   
   123  121  127 1   
   124  122  123 1   
   125  122  125 1   
   126  122  128 1   
   127  123  124 2   
   128  123  132 1   
   129  125  126 1   
   130  125  129 1   
   131  125  130 1   
   132  126  131 1   
   133  132  133 1   
   134  132  137 1   
   135  133  134 1   
   136  133  136 1   
   137  133  138 1   
   138  134  135 2   
   139  134  142 1   
   140  136  139 1   
   141  136  140 1   
   142  136  141 1   
   143  142  143 1   
   144  142  147 1   
   145  143  144 1   
   146  143  146 1   
   147  143  148 1   
   148  144  145 2   
   149  144  152 1   
   150  146  149 1   
   151  146  150 1   
   152  146  151 1   
   153  152  153 1   
   154  152  161 1   
   155  153  154 1   
   156  153  156 1   
   157  153  162 1   
   158  154  155 2   
   159  154  167 1   
   160  156  157 1   
   161  156  163 1   
   162  156  164 1   
   163  157  158 1   
   164  157  165 1   
   165  157  166 1   
   166  158  159 1   
   167  158  160 1   
   168  167  168 1   
   169  167  172 1   
   170  168  169 1   
   171  168  170 1   
   172  168  171 1   
   173  174  175 1   
   174  174  176 1   
   175  177  178 1   
   176  177  179 1   
@<TRIPOS>SUBSTRUCTURE
     1 MOL         1 TEMP              0 ****  ****    0 ROOT
