@<TRIPOS>MOLECULE
MOL
  179   176     1     0     0
SMALL
resp


@<TRIPOS>ATOM
      1 C1         -0.5650   -4.5630    3.5950 c3        1 MOL     -0.045452
      2 C2          0.0950   -3.9710    2.3710 c         1 MOL      0.707828
      3 O1         -0.1290   -4.3930    1.2140 o         1 MOL     -0.595632
      4 H1         -1.3970   -5.1970    3.2870 hc        1 MOL      0.003417
      5 H2          0.1600   -5.1610    4.1460 hc        1 MOL      0.003417
      6 H3         -0.9370   -3.7610    4.2320 hc        1 MOL      0.003417
      7 N1          1.0310   -3.0910    2.6320 n         1 MOL     -0.618339
      8 C3          1.8180   -2.3570    1.7020 c3        1 MOL      0.269973
      9 C4          3.0210   -3.1810    1.1190 c         1 MOL      0.413869
     10 O2          4.1810   -2.8630    1.2500 o         1 MOL     -0.493010
     11 C5          2.2750   -1.1700    2.4930 c3        1 MOL     -0.152499
     12 C6          2.9000   -0.1630    1.6040 c         1 MOL      0.723277
     13 O3          2.5920   -0.0950    0.3750 o         1 MOL     -0.648421
     14 O4          3.7900    0.4510    2.2460 o         1 MOL     -0.648421
     15 H4          1.3580   -3.1090    3.5880 hn        1 MOL      0.302987
     16 H5          1.2080   -2.0860    0.8450 h1        1 MOL      0.000751
     17 H6          3.0120   -1.4860    3.2350 hc        1 MOL      0.008389
     18 H7          1.4210   -0.7340    3.0040 hc        1 MOL      0.008389
     19 N2          2.7200   -4.2870    0.4590 n         1 MOL     -0.363508
     20 C7          3.6010   -5.3380    0.0040 c3        1 MOL     -0.001178
     21 C8          4.4520   -4.7520   -1.1430 c         1 MOL      0.334958
     22 O5          5.6550   -5.0340   -1.2400 o         1 MOL     -0.506393
     23 C9          2.8820   -6.6400   -0.3700 c3        1 MOL     -0.447049
     24 C10         2.5040   -7.4340    0.8970 c3        1 MOL      0.055339
     25 C11         3.6070   -7.8750    1.8730 c3        1 MOL     -0.113056
     26 C12         4.6940   -8.7380    1.3520 c3        1 MOL      0.128363
     27 N3          5.7280   -8.7440    2.4650 n4        1 MOL     -0.404430
     28 H8          1.7280   -4.4550    0.3680 hn        1 MOL      0.343263
     29 H9          4.3050   -5.4550    0.8250 h1        1 MOL      0.114367
     30 H10         3.6180   -7.2240   -0.9270 hc        1 MOL      0.181436
     31 H11         1.9780   -6.4800   -0.9440 hc        1 MOL      0.181436
     32 H12         2.0220   -8.3680    0.6060 hc        1 MOL      0.035175
     33 H13         1.7560   -6.8570    1.4370 hc        1 MOL      0.035175
     34 H14         3.1810   -8.3680    2.7400 hc        1 MOL      0.040708
     35 H15         4.1140   -6.9520    2.1760 hc        1 MOL      0.040708
     36 H16         5.0280   -8.4680    0.3530 hx        1 MOL      0.070661
     37 H17         4.2490   -9.7330    1.2690 hx        1 MOL      0.070661
     38 H18         6.1550   -7.8330    2.5710 hn        1 MOL      0.337208
     39 H19         5.4070   -8.9830    3.3930 hn        1 MOL      0.337208
     40 H20         6.4920   -9.3610    2.2450 hn        1 MOL      0.337208
     41 N4          3.9300   -3.7500   -1.8690 n         1 MOL     -0.170044
     42 C13         4.6580   -3.0300   -2.9340 c3        1 MOL      0.039641
     43 C14         5.7710   -2.1720   -2.3640 c         1 MOL      0.322781
     44 O6          6.9130   -2.2550   -2.8250 o         1 MOL     -0.530810
     45 C15         3.7740   -2.0370   -3.7370 c3        1 MOL     -0.321287
     46 C16         2.8070   -1.1970   -2.9420 c         1 MOL      0.919075
     47 O7          3.2210   -0.1250   -2.4710 o         1 MOL     -0.752053
     48 O8          1.5950   -1.4990   -2.8440 o         1 MOL     -0.752053
     49 H21         2.9540   -3.5150   -1.7820 hn        1 MOL      0.165128
     50 H22         5.0680   -3.7970   -3.5910 h1        1 MOL      0.097524
     51 H23         3.2720   -2.6170   -4.5080 hc        1 MOL      0.080111
     52 H24         4.4620   -1.3630   -4.2490 hc        1 MOL      0.080111
     53 N5          5.5480   -1.4920   -1.2280 n         1 MOL      0.035750
     54 C17         6.5690   -0.7710   -0.4490 c3        1 MOL     -0.120315
     55 C18         6.6530    0.7590   -0.6190 c         1 MOL      0.455239
     56 O9          7.6850    1.4050   -0.2870 o         1 MOL     -0.562891
     57 H25         4.6240   -1.5860   -0.8260 hn        1 MOL      0.082996
     58 H26         7.5720   -1.0640   -0.7830 h1        1 MOL      0.090534
     59 H27         6.5060   -1.0080    0.6090 h1        1 MOL      0.090534
     60 N6          5.6150    1.4020   -1.1960 n         1 MOL     -0.187415
     61 C19         5.5140    2.8920   -1.4200 c3        1 MOL     -0.001388
     62 C20         5.2060    3.6860   -0.1910 c         1 MOL      0.448767
     63 O10         5.4230    4.8830   -0.2080 o         1 MOL     -0.520970
     64 C21         4.5220    3.1980   -2.6120 c3        1 MOL     -0.320797
     65 C22         3.1130    3.5520   -2.3270 c         1 MOL      0.720375
     66 N7          2.6210    4.5210   -3.0470 n         1 MOL     -0.724034
     67 O11         2.4500    2.9200   -1.5170 o         1 MOL     -0.652420
     68 H28         4.8760    0.8420   -1.5860 hn        1 MOL      0.119071
     69 H29         6.4730    3.2730   -1.7620 h1        1 MOL      0.109477
     70 H30         4.5160    2.3400   -3.2780 hc        1 MOL      0.113904
     71 H31         4.9130    4.0920   -3.1090 hc        1 MOL      0.113904
     72 H32         3.2030    4.8830   -3.7820 hn        1 MOL      0.338688
     73 H33         1.6290    4.6680   -2.9990 hn        1 MOL      0.338688
     74 N8          4.8570    3.0110    0.9100 n         1 MOL     -0.119103
     75 C23         4.6070    3.7370    2.1410 c3        1 MOL     -0.338114
     76 C24         3.1770    4.2810    2.3080 c         1 MOL      0.495983
     77 O12         2.8170    5.1590    3.1190 o         1 MOL     -0.547548
     78 H34         4.6850    2.0230    0.8610 hn        1 MOL      0.193852
     79 H35         5.2470    4.6160    2.2340 h1        1 MOL      0.156940
     80 H36         4.8630    3.0280    2.9330 h1        1 MOL      0.156940
     81 N9          2.2520    3.6960    1.5480 n         1 MOL     -0.078531
     82 C25         0.8290    4.0840    1.5260 c3        1 MOL      0.018117
     83 C26        -0.1590    2.8710    1.4970 c         1 MOL      0.480550
     84 O13         0.1670    1.8620    0.8050 o         1 MOL     -0.541293
     85 C27         0.4260    4.9070    0.2850 c3        1 MOL     -0.110404
     86 C28         0.5770    6.4270    0.4630 ca        1 MOL      0.445955
     87 C29         1.2600    7.2090   -0.4580 ca        1 MOL     -0.550309
     88 C30        -0.1560    7.0570    1.5150 ca        1 MOL     -0.550309
     89 C31         1.3910    8.6140   -0.2490 ca        1 MOL      0.078423
     90 C32        -0.0560    8.4360    1.6920 ca        1 MOL      0.078423
     91 C33         0.6830    9.2320    0.8140 ca        1 MOL      0.064134
     92 O14         0.7520   10.6230    0.9390 oh        1 MOL     -0.488336
     93 H37         2.5130    2.8470    1.0820 hn        1 MOL      0.017200
     94 H38         0.5830    4.6610    2.4210 h1        1 MOL      0.059810
     95 H39        -0.6060    4.7210   -0.0250 hc        1 MOL      0.028350
     96 H40         0.9100    4.5490   -0.6240 hc        1 MOL      0.028350
     97 H41         1.7670    6.7560   -1.2950 ha        1 MOL      0.217303
     98 H42        -0.7200    6.3660    2.1340 ha        1 MOL      0.217303
     99 H43         1.9600    9.1650   -0.9780 ha        1 MOL      0.085368
    100 H44        -0.5870    8.9270    2.4910 ha        1 MOL      0.085368
    101 H45         0.0050   11.0130    1.4000 ho        1 MOL      0.373164
    102 N10        -1.3220    2.9500    2.1580 n         1 MOL     -0.421811
    103 C34        -2.4160    1.9290    2.0710 c3        1 MOL      0.119858
    104 C35        -3.7110    2.5060    1.4100 c         1 MOL      0.491304
    105 O15        -4.2920    3.4320    1.9400 o         1 MOL     -0.558603
    106 C36        -2.7680    1.3320    3.4730 c3        1 MOL     -0.130733
    107 C37        -1.6590    0.4210    3.9030 c3        1 MOL      0.319941
    108 C38        -4.0980    0.5270    3.5930 c3        1 MOL     -0.065905
    109 C39        -1.7090   -0.0210    5.4040 c3        1 MOL     -0.408339
    110 H46        -1.3370    3.6920    2.8450 hn        1 MOL      0.266666
    111 H47        -1.9940    1.0690    1.5500 h1        1 MOL     -0.079620
    112 H48        -2.7650    2.1490    4.1910 hc        1 MOL      0.060155
    113 H49        -0.7010    0.9340    3.8190 hc        1 MOL     -0.008296
    114 H50        -1.6300   -0.4470    3.2460 hc        1 MOL     -0.008296
    115 H51        -4.2770    0.1870    4.6150 hc        1 MOL      0.020295
    116 H52        -4.9350    1.1950    3.4150 hc        1 MOL      0.020295
    117 H53        -4.1610   -0.3170    2.9180 hc        1 MOL      0.020295
    118 H54        -1.9220    0.8280    6.0520 hc        1 MOL      0.090429
    119 H55        -2.5180   -0.7430    5.4630 hc        1 MOL      0.090429
    120 H56        -0.7660   -0.5230    5.5830 hc        1 MOL      0.090429
    121 N11        -4.1520    1.9700    0.2920 n         1 MOL     -0.280922
    122 C40        -5.4080    2.2950   -0.3610 c3        1 MOL     -0.010934
    123 C41        -6.3370    1.0280   -0.5590 c         1 MOL      0.568813
    124 O16        -5.9420   -0.0700   -0.2630 o         1 MOL     -0.465065
    125 C42        -5.2150    3.0470   -1.6840 c3        1 MOL     -0.084962
    126 O17        -4.5000    2.2170   -2.6120 oh        1 MOL     -0.601750
    127 H57        -3.5470    1.2410   -0.0510 hn        1 MOL      0.347764
    128 H58        -6.0040    2.9290    0.3040 h1        1 MOL      0.065968
    129 H59        -4.5930    3.9280   -1.5680 h1        1 MOL      0.096097
    130 H60        -6.1960    3.3580   -2.0600 h1        1 MOL      0.096097
    131 H61        -4.1010    2.7020   -3.3400 ho        1 MOL      0.405793
    132 N12        -7.5900    1.2770   -0.8420 n         1 MOL     -0.453018
    133 C43        -8.7380    0.3690   -0.4970 c3        1 MOL      0.119861
    134 C44        -8.3990   -1.0880   -0.8410 c         1 MOL      0.552175
    135 O18        -8.6600   -2.0030   -0.0720 o         1 MOL     -0.513884
    136 C45        -9.9670    0.9400   -1.2140 c3        1 MOL     -0.340717
    137 H62        -7.7700    2.2270   -1.1120 hn        1 MOL      0.277699
    138 H63        -8.8490    0.3590    0.5920 h1        1 MOL      0.062071
    139 H64        -9.8410    0.8110   -2.2800 hc        1 MOL      0.105973
    140 H65       -10.8760    0.4350   -0.8670 hc        1 MOL      0.105973
    141 H66       -10.0230    2.0050   -0.9760 hc        1 MOL      0.105973
    142 N13        -7.8400   -1.2800   -2.0890 n         1 MOL     -0.448454
    143 C46        -7.5920   -2.6310   -2.6570 c3        1 MOL      0.117623
    144 C47        -6.5110   -3.3740   -1.8210 c         1 MOL      0.421916
    145 O19        -6.8740   -4.4780   -1.3990 o         1 MOL     -0.514992
    146 C48        -7.3180   -2.4390   -4.1690 c3        1 MOL     -0.368301
    147 H67        -7.5710   -0.5000   -2.6700 hn        1 MOL      0.255447
    148 H68        -8.4590   -3.2570   -2.4290 h1        1 MOL      0.088382
    149 H69        -8.2220   -2.0890   -4.6550 hc        1 MOL      0.106362
    150 H70        -6.4130   -1.8580   -4.3580 hc        1 MOL      0.106362
    151 H71        -7.1630   -3.4110   -4.6360 hc        1 MOL      0.106362
    152 N14        -5.3200   -2.8250   -1.5440 n         1 MOL     -0.294020
    153 C49        -4.3950   -3.5660   -0.7040 c3        1 MOL     -0.258431
    154 C50        -4.7680   -3.6830    0.7470 c         1 MOL      0.470222
    155 O20        -4.2250   -4.5410    1.4250 o         1 MOL     -0.542828
    156 C51        -3.0580   -2.8580   -0.7900 c3        1 MOL      0.070793
    157 C52        -2.8490   -1.5810   -0.0600 c3        1 MOL      0.193754
    158 C53        -1.6630   -0.8350   -0.6070 c         1 MOL      0.717712
    159 O21        -1.8770    0.3200   -1.0590 o         1 MOL     -0.782322
    160 O22        -0.5050   -1.3430   -0.6640 o         1 MOL     -0.782322
    161 H72        -5.0760   -1.9860   -2.0640 hn        1 MOL      0.298229
    162 H73        -4.3780   -4.5630   -1.1620 h1        1 MOL      0.167686
    163 H74        -2.9050   -2.6500   -1.8490 hc        1 MOL      0.000862
    164 H75        -2.2430   -3.5090   -0.4580 hc        1 MOL      0.000862
    165 H76        -2.7080   -1.8510    0.9860 hc        1 MOL     -0.098335
    166 H77        -3.7630   -0.9970   -0.1900 hc        1 MOL     -0.098335
    167 N15        -5.7700   -2.9170    1.2020 n         1 MOL      0.017601
    168 C54        -6.3240   -3.0610    2.5120 c3        1 MOL     -0.238072
    169 H78        -7.1300   -3.7950    2.4860 h1        1 MOL      0.086115
    170 H79        -5.5500   -3.3960    3.2000 h1        1 MOL      0.086115
    171 H80        -6.7190   -2.1020    2.8470 h1        1 MOL      0.086115
    172 H81        -6.1350   -2.1810    0.6200 hn        1 MOL      0.133610
    173 Ca1         0.9280    0.7070   -1.4030 Ca        1 MOL      1.734016
    174 O23         1.3940    1.7290   -3.9870 oh        1 MOL     -0.839599
    175 H82         1.4920    1.7990   -4.9340 ho        1 MOL      0.404090
    176 H83         1.4320    2.6260   -3.6640 ho        1 MOL      0.404090
    177 O24        -0.7150    2.5170   -2.1900 oh        1 MOL     -0.839599
    178 H84        -1.5260    2.1060   -1.8760 ho        1 MOL      0.404090
    179 H85        -1.0100    3.2200   -2.7710 ho        1 MOL      0.404090
@<TRIPOS>BOND
     1    1    2 1   
     2    1    4 1   
     3    1    5 1   
     4    1    6 1   
     5    2    3 2   
     6    2    7 1   
     7    7    8 1   
     8    7   15 1   
     9    8    9 1   
    10    8   11 1   
    11    8   16 1   
    12    9   10 2   
    13    9   19 1   
    14   11   12 1   
    15   11   17 1   
    16   11   18 1   
    17   12   13 1   
    18   12   14 1   
    19   19   20 1   
    20   19   28 1   
    21   20   21 1   
    22   20   23 1   
    23   20   29 1   
    24   21   22 2   
    25   21   41 1   
    26   23   24 1   
    27   23   30 1   
    28   23   31 1   
    29   24   25 1   
    30   24   32 1   
    31   24   33 1   
    32   25   26 1   
    33   25   34 1   
    34   25   35 1   
    35   26   27 1   
    36   26   36 1   
    37   26   37 1   
    38   27   38 1   
    39   27   39 1   
    40   27   40 1   
    41   41   42 1   
    42   41   49 1   
    43   42   43 1   
    44   42   45 1   
    45   42   50 1   
    46   43   44 2   
    47   43   53 1   
    48   45   46 1   
    49   45   51 1   
    50   45   52 1   
    51   46   47 1   
    52   46   48 1   
    53   53   54 1   
    54   53   57 1   
    55   54   55 1   
    56   54   58 1   
    57   54   59 1   
    58   55   56 2   
    59   55   60 1   
    60   60   61 1   
    61   60   68 1   
    62   61   62 1   
    63   61   64 1   
    64   61   69 1   
    65   62   63 2   
    66   62   74 1   
    67   64   65 1   
    68   64   70 1   
    69   64   71 1   
    70   65   66 1   
    71   65   67 2   
    72   66   72 1   
    73   66   73 1   
    74   74   75 1   
    75   74   78 1   
    76   75   76 1   
    77   75   79 1   
    78   75   80 1   
    79   76   77 2   
    80   76   81 1   
    81   81   82 1   
    82   81   93 1   
    83   82   83 1   
    84   82   85 1   
    85   82   94 1   
    86   83   84 2   
    87   83  102 1   
    88   85   86 1   
    89   85   95 1   
    90   85   96 1   
    91   86   87 ar  
    92   86   88 ar  
    93   87   89 ar  
    94   87   97 1   
    95   88   90 ar  
    96   88   98 1   
    97   89   91 ar  
    98   89   99 1   
    99   90   91 ar  
   100   90  100 1   
   101   91   92 1   
   102   92  101 1   
   103  102  103 1   
   104  102  110 1   
   105  103  104 1   
   106  103  106 1   
   107  103  111 1   
   108  104  105 2   
   109  104  121 1   
   110  106  107 1   
   111  106  108 1   
   112  106  112 1   
   113  107  109 1   
   114  107  113 1   
   115  107  114 1   
   116  108  115 1   
   117  108  116 1   
   118  108  117 1   
   119  109  118 1   
   120  109  119 1   
   121  109  120 1   
   122  121  122 1   
   123  121  127 1   
   124  122  123 1   
   125  122  125 1   
   126  122  128 1   
   127  123  124 2   
   128  123  132 1   
   129  125  126 1   
   130  125  129 1   
   131  125  130 1   
   132  126  131 1   
   133  132  133 1   
   134  132  137 1   
   135  133  134 1   
   136  133  136 1   
   137  133  138 1   
   138  134  135 2   
   139  134  142 1   
   140  136  139 1   
   141  136  140 1   
   142  136  141 1   
   143  142  143 1   
   144  142  147 1   
   145  143  144 1   
   146  143  146 1   
   147  143  148 1   
   148  144  145 2   
   149  144  152 1   
   150  146  149 1   
   151  146  150 1   
   152  146  151 1   
   153  152  153 1   
   154  152  161 1   
   155  153  154 1   
   156  153  156 1   
   157  153  162 1   
   158  154  155 2   
   159  154  167 1   
   160  156  157 1   
   161  156  163 1   
   162  156  164 1   
   163  157  158 1   
   164  157  165 1   
   165  157  166 1   
   166  158  159 1   
   167  158  160 1   
   168  167  168 1   
   169  167  172 1   
   170  168  169 1   
   171  168  170 1   
   172  168  171 1   
   173  174  175 1   
   174  174  176 1   
   175  177  178 1   
   176  177  179 1   
@<TRIPOS>SUBSTRUCTURE
     1 MOL         1 TEMP              0 ****  ****    0 ROOT
