@<TRIPOS>MOLECULE
MOL
  179   176     1     0     0
SMALL
resp


@<TRIPOS>ATOM
      1 C1          1.9220    3.6450    3.8890 c3        1 MOL     -0.370922
      2 C2          0.9870    3.2460    2.6530 c         1 MOL      0.583468
      3 O1          1.3520    3.5320    1.5110 o         1 MOL     -0.599528
      4 H1          2.9660    3.4850    3.6200 hc        1 MOL      0.099053
      5 H2          1.7680    4.6950    4.1370 hc        1 MOL      0.099053
      6 H3          1.6710    3.0260    4.7500 hc        1 MOL      0.099053
      7 N1         -0.2160    2.7550    2.8420 n         1 MOL     -0.583520
      8 C3         -1.2840    2.5110    1.8990 c3        1 MOL      0.067915
      9 C4         -1.9860    3.8320    1.5440 c         1 MOL      0.743105
     10 O2         -3.1500    4.0160    1.8990 o         1 MOL     -0.518096
     11 C5         -2.1910    1.3720    2.4980 c3        1 MOL     -0.150900
     12 C6         -3.2280    0.8610    1.5480 c         1 MOL      0.511116
     13 O3         -4.3900    0.7460    1.9720 o         1 MOL     -0.594126
     14 O4         -2.9260    0.5680    0.3650 o         1 MOL     -0.594126
     15 H4         -0.4290    2.5960    3.8190 hn        1 MOL      0.322296
     16 H5         -0.7350    2.0240    1.1040 h1        1 MOL     -0.040261
     17 H6         -2.6870    1.8250    3.3600 hc        1 MOL      0.063994
     18 H7         -1.6340    0.5330    2.9140 hc        1 MOL      0.063994
     19 N2         -1.2010    4.7910    1.0470 n         1 MOL     -0.609852
     20 C7         -1.6780    6.1580    0.6150 c3        1 MOL     -0.068367
     21 C8         -2.8550    5.9820   -0.3070 c         1 MOL      0.496847
     22 O5         -3.7870    6.7180   -0.1910 o         1 MOL     -0.535142
     23 C9         -0.4910    6.8300   -0.0570 c3        1 MOL     -0.078669
     24 C10         0.7030    7.2200    0.8150 c3        1 MOL      0.309020
     25 C11         1.7750    7.8890   -0.0480 c3        1 MOL     -0.094723
     26 C12         3.0560    8.3560    0.6780 c3        1 MOL     -0.004829
     27 N3          3.6520    7.2770    1.5210 n4        1 MOL     -0.428910
     28 H8         -0.2500    4.5600    0.8340 hn        1 MOL      0.444624
     29 H9         -2.0560    6.7150    1.4790 h1        1 MOL      0.118139
     30 H10        -0.8060    7.7530   -0.5470 hc        1 MOL      0.026187
     31 H11        -0.1920    6.1630   -0.8670 hc        1 MOL      0.026187
     32 H12         1.0980    6.2820    1.1890 hc        1 MOL     -0.079602
     33 H13         0.3620    7.8300    1.6470 hc        1 MOL     -0.079602
     34 H14         1.2990    8.6470   -0.6810 hc        1 MOL      0.051757
     35 H15         2.1750    7.0880   -0.6760 hc        1 MOL      0.051757
     36 H16         2.8980    9.2900    1.2060 hx        1 MOL      0.093376
     37 H17         3.7750    8.5660   -0.1190 hx        1 MOL      0.093376
     38 H18         4.5550    7.6100    1.8300 hn        1 MOL      0.358191
     39 H19         2.9920    6.9840    2.2210 hn        1 MOL      0.358191
     40 H20         3.7890    6.4520    0.9560 hn        1 MOL      0.358191
     41 N4         -2.8670    5.0240   -1.2090 n         1 MOL     -0.346977
     42 C13        -4.0270    4.7740   -2.0810 c3        1 MOL      0.008190
     43 C14        -5.2730    4.1440   -1.4770 c         1 MOL      0.464447
     44 O6         -6.3920    4.5120   -1.9100 o         1 MOL     -0.544580
     45 C15        -3.4910    3.7800   -3.1810 c3        1 MOL     -0.265174
     46 C16        -2.8780    2.4830   -2.6000 c         1 MOL      0.769982
     47 O7         -3.4200    1.3930   -2.8900 o         1 MOL     -0.739590
     48 O8         -1.9390    2.5360   -1.8270 o         1 MOL     -0.739590
     49 H21        -2.1150    4.3530   -1.2210 hn        1 MOL      0.264306
     50 H22        -4.2660    5.7300   -2.5650 h1        1 MOL      0.096886
     51 H23        -2.7340    4.3130   -3.7690 hc        1 MOL      0.066154
     52 H24        -4.2710    3.6220   -3.9150 hc        1 MOL      0.066154
     53 N5         -5.0780    3.3790   -0.4000 n         1 MOL     -0.040156
     54 C17        -6.1880    2.9070    0.4160 c3        1 MOL     -0.170220
     55 C18        -6.8720    1.6800   -0.0680 c         1 MOL      0.572631
     56 O9         -8.1170    1.5450    0.0370 o         1 MOL     -0.575023
     57 H25        -4.1310    3.2290   -0.0910 hn        1 MOL      0.152057
     58 H26        -6.9710    3.6680    0.4900 h1        1 MOL      0.094730
     59 H27        -5.8180    2.6780    1.4160 h1        1 MOL      0.094730
     60 N6         -6.0750    0.7430   -0.6500 n         1 MOL     -0.174262
     61 C19        -6.6890   -0.5670   -1.0780 c3        1 MOL      0.046070
     62 C20        -6.4690   -1.6800   -0.0700 c         1 MOL      0.247035
     63 O10        -6.8390   -2.7880   -0.3310 o         1 MOL     -0.445584
     64 C21        -6.1450   -0.9300   -2.4550 c3        1 MOL     -0.286039
     65 C22        -4.8180   -1.6890   -2.4140 c         1 MOL      0.814095
     66 N7         -4.7570   -2.7900   -3.1650 n         1 MOL     -0.887569
     67 O11        -3.8290   -1.2730   -1.8170 o         1 MOL     -0.654446
     68 H28        -5.0760    0.8070   -0.4710 hn        1 MOL     -0.086364
     69 H29        -7.7740   -0.4450   -1.1920 h1        1 MOL      0.130030
     70 H30        -5.9500   -0.0610   -3.0890 hc        1 MOL      0.104810
     71 H31        -6.8250   -1.6620   -2.8930 hc        1 MOL      0.104810
     72 H32        -5.5630   -3.2030   -3.6210 hn        1 MOL      0.394620
     73 H33        -3.9000   -3.3410   -3.1100 hn        1 MOL      0.394620
     74 N8         -5.7430   -1.5060    1.0480 n         1 MOL     -0.160111
     75 C23        -5.6140   -2.5880    2.0810 c3        1 MOL     -0.141029
     76 C24        -4.2630   -3.2760    2.1800 c         1 MOL      0.492096
     77 O12        -4.1700   -4.2130    2.9040 o         1 MOL     -0.535790
     78 H34        -5.2740   -0.6270    1.2090 hn        1 MOL      0.233640
     79 H35        -6.3990   -3.3190    1.9280 h1        1 MOL      0.115809
     80 H36        -5.8680   -2.1730    3.0630 h1        1 MOL      0.115809
     81 N9         -3.3080   -2.9990    1.3060 n         1 MOL     -0.306846
     82 C25        -2.0040   -3.7260    1.2570 c3        1 MOL      0.007540
     83 C26        -0.7440   -2.8530    0.9730 c         1 MOL      0.556891
     84 O13        -0.8450   -1.8840    0.2310 o         1 MOL     -0.604207
     85 C27        -2.1030   -4.7540    0.1980 c3        1 MOL      0.282588
     86 C28        -3.2210   -5.7230    0.3240 ca        1 MOL      0.048171
     87 C29        -4.5430   -5.4350   -0.1300 ca        1 MOL     -0.282805
     88 C30        -2.9220   -6.9610    0.7840 ca        1 MOL     -0.282805
     89 C31        -5.6180   -6.3440    0.0950 ca        1 MOL     -0.140880
     90 C32        -3.9590   -7.9320    0.8570 ca        1 MOL     -0.140880
     91 C33        -5.3380   -7.6600    0.5420 ca        1 MOL      0.294348
     92 O14        -6.2540   -8.6410    0.5050 oh        1 MOL     -0.458207
     93 H37        -3.4720   -2.1250    0.8190 hn        1 MOL      0.244613
     94 H38        -1.8530   -4.2490    2.1980 h1        1 MOL      0.058106
     95 H39        -1.1540   -5.2860    0.2020 hc        1 MOL     -0.088001
     96 H40        -2.1910   -4.2330   -0.7550 hc        1 MOL     -0.088001
     97 H41        -4.6580   -4.5240   -0.6920 ha        1 MOL      0.148825
     98 H42        -1.9160   -7.1660    1.1210 ha        1 MOL      0.148825
     99 H43        -6.5860   -6.1360   -0.3360 ha        1 MOL      0.099370
    100 H44        -3.7290   -8.9620    1.1000 ha        1 MOL      0.099370
    101 H45        -5.9250   -9.5470    0.5380 ho        1 MOL      0.346998
    102 N10         0.3190   -3.2230    1.6070 n         1 MOL     -0.426599
    103 C34         1.6220   -2.5820    1.2670 c3        1 MOL     -0.148484
    104 C35         2.7400   -3.5340    0.8010 c         1 MOL      0.686112
    105 O15         2.9800   -4.6010    1.3760 o         1 MOL     -0.558478
    106 C36         2.0880   -1.5250    2.2770 c3        1 MOL      0.016929
    107 C37         2.1980   -2.1470    3.7090 c3        1 MOL      0.013841
    108 C38         1.0420   -0.3990    2.3260 c3        1 MOL     -0.491669
    109 C39         2.4560   -1.1730    4.8470 c3        1 MOL     -0.278717
    110 H46         0.2810   -3.8950    2.3540 hn        1 MOL      0.294285
    111 H47         1.4110   -2.0030    0.3660 h1        1 MOL      0.137051
    112 H48         3.0290   -1.1380    1.8980 hc        1 MOL      0.011739
    113 H49         3.0230   -2.8530    3.5910 hc        1 MOL      0.044689
    114 H50         1.3240   -2.7510    3.9520 hc        1 MOL      0.044689
    115 H51         0.0820   -0.7380    2.7090 hc        1 MOL      0.176441
    116 H52         1.4320    0.3420    3.0290 hc        1 MOL      0.176441
    117 H53         0.9260    0.1520    1.3860 hc        1 MOL      0.176441
    118 H54         1.5970   -0.5090    4.8350 hc        1 MOL      0.071069
    119 H55         2.5740   -1.7470    5.7600 hc        1 MOL      0.071069
    120 H56         3.4110   -0.6960    4.6240 hc        1 MOL      0.071069
    121 N11         3.4900   -3.1410   -0.2650 n         1 MOL     -0.566138
    122 C40         4.7510   -3.8320   -0.6770 c3        1 MOL      0.231976
    123 C41         5.9980   -3.2060   -0.1770 c         1 MOL      0.453529
    124 O16         5.9650   -2.1120    0.4100 o         1 MOL     -0.447149
    125 C42         4.7750   -4.0300   -2.2400 c3        1 MOL     -0.241501
    126 O17         5.2530   -2.8540   -2.8100 oh        1 MOL     -0.393544
    127 H57         3.3230   -2.2430   -0.7030 hn        1 MOL      0.234675
    128 H58         4.7380   -4.8170   -0.2090 h1        1 MOL      0.035404
    129 H59         3.7710   -4.2150   -2.6240 h1        1 MOL      0.132348
    130 H60         5.3650   -4.9050   -2.5170 h1        1 MOL      0.132348
    131 H61         5.0430   -2.7030   -3.7350 ho        1 MOL      0.369644
    132 N12         7.1370   -3.8120   -0.4790 n         1 MOL     -0.377342
    133 C43         8.4380   -3.3000   -0.1430 c3        1 MOL      0.071886
    134 C44         8.7320   -1.8480   -0.7390 c         1 MOL      0.458526
    135 O18         9.4840   -1.0720   -0.1530 o         1 MOL     -0.534718
    136 C45         9.5290   -4.3120   -0.6350 c3        1 MOL     -0.418058
    137 H62         7.1110   -4.6980   -0.9740 hn        1 MOL      0.263614
    138 H63         8.3830   -3.1970    0.9380 h1        1 MOL      0.099016
    139 H64        10.5090   -3.9320   -0.3250 hc        1 MOL      0.132595
    140 H65         9.3570   -5.2540   -0.0990 hc        1 MOL      0.132595
    141 H66         9.7160   -4.3750   -1.7010 hc        1 MOL      0.132595
    142 N13         8.0270   -1.4250   -1.7940 n         1 MOL     -0.204407
    143 C46         8.1790   -0.0180   -2.2890 c3        1 MOL      0.070741
    144 C47         7.3130    1.0440   -1.5530 c         1 MOL      0.454432
    145 O19         7.8180    2.1170   -1.3210 o         1 MOL     -0.520430
    146 C48         7.8580    0.1380   -3.7980 c3        1 MOL     -0.180460
    147 H67         7.3850   -2.0150   -2.3130 hn        1 MOL      0.098839
    148 H68         9.2310    0.2490   -2.1830 h1        1 MOL      0.080314
    149 H69         6.7720    0.0980   -3.8170 hc        1 MOL      0.046398
    150 H70         8.0500    1.1760   -4.0710 hc        1 MOL      0.046398
    151 H71         8.3170   -0.6300   -4.4260 hc        1 MOL      0.046398
    152 N14         6.1230    0.5920   -1.1590 n         1 MOL     -0.127654
    153 C49         5.2350    1.4760   -0.2910 c3        1 MOL     -0.380176
    154 C50         5.8880    1.6230    1.0850 c         1 MOL      0.571916
    155 O20         5.6970    2.6970    1.6610 o         1 MOL     -0.585915
    156 C51         3.7950    0.9400   -0.1770 c3        1 MOL      0.121486
    157 C52         3.0030    0.8630   -1.5110 c3        1 MOL     -0.042133
    158 C53         1.5650    0.4200   -1.2590 c         1 MOL      0.756123
    159 O21         1.1260   -0.7070   -1.7000 o         1 MOL     -0.688381
    160 O22         0.7560    1.1820   -0.7080 o         1 MOL     -0.688381
    161 H72         5.7700   -0.3030   -1.4700 hn        1 MOL      0.172150
    162 H73         5.2610    2.4460   -0.7810 h1        1 MOL      0.166222
    163 H74         3.2130    1.6260    0.4450 hc        1 MOL      0.044691
    164 H75         3.8280   -0.0610    0.2330 hc        1 MOL      0.044691
    165 H76         3.3760    0.0910   -2.1940 hc        1 MOL     -0.038309
    166 H77         3.0310    1.8090   -2.0500 hc        1 MOL     -0.038309
    167 N15         6.5860    0.5780    1.5450 n         1 MOL     -0.131535
    168 C54         7.3510    0.5820    2.7900 c3        1 MOL     -0.334287
    169 H78         8.3730    0.2640    2.5880 h1        1 MOL      0.127304
    170 H79         7.3600    1.5880    3.2080 h1        1 MOL      0.127304
    171 H80         6.8910   -0.1040    3.5010 h1        1 MOL      0.127304
    172 H81         6.7570   -0.1970    0.9170 hn        1 MOL      0.162188
    173 Ca1        -1.4630   -0.1620   -1.5800 Ca        1 MOL      1.779977
    174 O23        -0.1910    0.5720   -3.9650 oh        1 MOL     -0.882358
    175 H82         0.1970   -0.0740   -4.5590 ho        1 MOL      0.422016
    176 H83        -0.3530    1.3320   -4.5180 ho        1 MOL      0.422016
    177 O24        -0.9810   -2.4300   -2.7210 oh        1 MOL     -0.882358
    178 H84        -1.5410   -3.1900   -2.8610 ho        1 MOL      0.422016
    179 H85        -0.0940   -2.7610   -2.8670 ho        1 MOL      0.422016
@<TRIPOS>BOND
     1    1    2 1   
     2    1    4 1   
     3    1    5 1   
     4    1    6 1   
     5    2    3 2   
     6    2    7 1   
     7    7    8 1   
     8    7   15 1   
     9    8    9 1   
    10    8   11 1   
    11    8   16 1   
    12    9   10 2   
    13    9   19 1   
    14   11   12 1   
    15   11   17 1   
    16   11   18 1   
    17   12   13 1   
    18   12   14 1   
    19   19   20 1   
    20   19   28 1   
    21   20   21 1   
    22   20   23 1   
    23   20   29 1   
    24   21   22 2   
    25   21   41 1   
    26   23   24 1   
    27   23   30 1   
    28   23   31 1   
    29   24   25 1   
    30   24   32 1   
    31   24   33 1   
    32   25   26 1   
    33   25   34 1   
    34   25   35 1   
    35   26   27 1   
    36   26   36 1   
    37   26   37 1   
    38   27   38 1   
    39   27   39 1   
    40   27   40 1   
    41   41   42 1   
    42   41   49 1   
    43   42   43 1   
    44   42   45 1   
    45   42   50 1   
    46   43   44 2   
    47   43   53 1   
    48   45   46 1   
    49   45   51 1   
    50   45   52 1   
    51   46   47 1   
    52   46   48 1   
    53   53   54 1   
    54   53   57 1   
    55   54   55 1   
    56   54   58 1   
    57   54   59 1   
    58   55   56 2   
    59   55   60 1   
    60   60   61 1   
    61   60   68 1   
    62   61   62 1   
    63   61   64 1   
    64   61   69 1   
    65   62   63 2   
    66   62   74 1   
    67   64   65 1   
    68   64   70 1   
    69   64   71 1   
    70   65   66 1   
    71   65   67 2   
    72   66   72 1   
    73   66   73 1   
    74   74   75 1   
    75   74   78 1   
    76   75   76 1   
    77   75   79 1   
    78   75   80 1   
    79   76   77 2   
    80   76   81 1   
    81   81   82 1   
    82   81   93 1   
    83   82   83 1   
    84   82   85 1   
    85   82   94 1   
    86   83   84 2   
    87   83  102 1   
    88   85   86 1   
    89   85   95 1   
    90   85   96 1   
    91   86   87 ar  
    92   86   88 ar  
    93   87   89 ar  
    94   87   97 1   
    95   88   90 ar  
    96   88   98 1   
    97   89   91 ar  
    98   89   99 1   
    99   90   91 ar  
   100   90  100 1   
   101   91   92 1   
   102   92  101 1   
   103  102  103 1   
   104  102  110 1   
   105  103  104 1   
   106  103  106 1   
   107  103  111 1   
   108  104  105 2   
   109  104  121 1   
   110  106  107 1   
   111  106  108 1   
   112  106  112 1   
   113  107  109 1   
   114  107  113 1   
   115  107  114 1   
   116  108  115 1   
   117  108  116 1   
   118  108  117 1   
   119  109  118 1   
   120  109  119 1   
   121  109  120 1   
   122  121  122 1   
   123  121  127 1   
   124  122  123 1   
   125  122  125 1   
   126  122  128 1   
   127  123  124 2   
   128  123  132 1   
   129  125  126 1   
   130  125  129 1   
   131  125  130 1   
   132  126  131 1   
   133  132  133 1   
   134  132  137 1   
   135  133  134 1   
   136  133  136 1   
   137  133  138 1   
   138  134  135 2   
   139  134  142 1   
   140  136  139 1   
   141  136  140 1   
   142  136  141 1   
   143  142  143 1   
   144  142  147 1   
   145  143  144 1   
   146  143  146 1   
   147  143  148 1   
   148  144  145 2   
   149  144  152 1   
   150  146  149 1   
   151  146  150 1   
   152  146  151 1   
   153  152  153 1   
   154  152  161 1   
   155  153  154 1   
   156  153  156 1   
   157  153  162 1   
   158  154  155 2   
   159  154  167 1   
   160  156  157 1   
   161  156  163 1   
   162  156  164 1   
   163  157  158 1   
   164  157  165 1   
   165  157  166 1   
   166  158  159 1   
   167  158  160 1   
   168  167  168 1   
   169  167  172 1   
   170  168  169 1   
   171  168  170 1   
   172  168  171 1   
   173  174  175 1   
   174  174  176 1   
   175  177  178 1   
   176  177  179 1   
@<TRIPOS>SUBSTRUCTURE
     1 MOL         1 TEMP              0 ****  ****    0 ROOT
