@<TRIPOS>MOLECULE
MOL
  175   173     1     0     0
SMALL
resp


@<TRIPOS>ATOM
      1 C1          0.3960    4.5180    5.0210 c3        1 MOL     -0.351256
      2 C2         -0.3070    4.3670    3.6850 c         1 MOL      0.805068
      3 O1          0.4320    4.3490    2.7170 o         1 MOL     -0.599568
      4 H1          1.3010    5.1110    4.8900 hc        1 MOL      0.073300
      5 H2         -0.2660    5.0200    5.7260 hc        1 MOL      0.073300
      6 H3          0.6610    3.5340    5.4070 hc        1 MOL      0.073300
      7 N1         -1.5850    4.2520    3.6850 n         1 MOL     -0.688863
      8 C3         -2.3120    3.8160    2.5310 c3        1 MOL      0.070936
      9 C4         -2.6500    5.0310    1.6170 c         1 MOL      0.672724
     10 O2         -3.0780    6.0710    2.0270 o         1 MOL     -0.573072
     11 C5         -3.4990    2.9690    2.9250 c3        1 MOL     -0.099022
     12 C6         -4.0950    2.3590    1.6300 c         1 MOL      0.620815
     13 O3         -5.3260    2.1010    1.6920 o         1 MOL     -0.646196
     14 O4         -3.3640    2.0560    0.7030 o         1 MOL     -0.646196
     15 H4         -2.1040    4.3970    4.5450 hn        1 MOL      0.338726
     16 H5         -1.5730    3.2120    2.0180 h1        1 MOL      0.124316
     17 H6         -4.3470    3.4540    3.4050 hc        1 MOL      0.017557
     18 H7         -3.2440    2.1530    3.6050 hc        1 MOL      0.017557
     19 N2         -2.5250    4.7730    0.3230 n         1 MOL     -0.698390
     20 C7         -2.9310    5.7460   -0.7230 c3        1 MOL      0.354267
     21 C8         -3.7380    5.1350   -1.9020 c         1 MOL      0.399159
     22 O5         -4.0000    5.7380   -2.9690 o         1 MOL     -0.560399
     23 C9         -1.6470    6.5220   -1.1110 c3        1 MOL     -0.261008
     24 H8         -2.1000    3.9030    0.0290 hn        1 MOL      0.368836
     25 H9         -3.5630    6.5260   -0.3090 h1        1 MOL      0.010816
     26 H10        -1.1980    6.8990   -0.1930 hc        1 MOL      0.067151
     27 H11        -1.0150    5.7120   -1.4970 hc        1 MOL      0.067151
     28 H12        -1.7020    7.3610   -1.7980 hc        1 MOL      0.067151
     29 N3         -4.1340    3.8720   -1.7570 n         1 MOL     -0.420427
     30 C10        -4.7390    3.1240   -2.8930 c3        1 MOL      0.197417
     31 C11        -6.0570    2.3650   -2.6200 c         1 MOL      0.274380
     32 O6         -6.8020    2.0940   -3.5420 o         1 MOL     -0.531611
     33 C12        -3.7530    2.2330   -3.6040 c3        1 MOL     -0.104760
     34 C13        -3.1090    1.2470   -2.6180 c         1 MOL      0.571100
     35 O7         -1.8490    1.2380   -2.4400 o         1 MOL     -0.675786
     36 O8         -3.8450    0.5660   -1.8530 o         1 MOL     -0.675786
     37 H13        -3.8580    3.3040   -0.9590 hn        1 MOL      0.336728
     38 H14        -4.9010    3.8360   -3.7030 h1        1 MOL      0.065009
     39 H15        -2.9610    2.8450   -4.0250 hc        1 MOL      0.038839
     40 H16        -4.2620    1.7100   -4.4130 hc        1 MOL      0.038839
     41 N4         -6.3310    1.9750   -1.4260 n         1 MOL     -0.071578
     42 C14        -7.5100    1.1550   -0.9130 c3        1 MOL     -0.138315
     43 C15        -7.4720   -0.2700   -1.4960 c         1 MOL      0.435525
     44 O9         -8.5150   -0.8860   -1.7580 o         1 MOL     -0.590052
     45 H17        -5.6090    2.1090   -0.7430 hn        1 MOL      0.000762
     46 H18        -8.4150    1.6690   -1.2080 h1        1 MOL      0.097943
     47 H19        -7.4980    1.0560    0.1720 h1        1 MOL      0.097943
     48 N5         -6.2630   -0.7770   -1.7240 n         1 MOL     -0.103605
     49 C16        -6.2000   -2.1100   -2.3970 c3        1 MOL     -0.047496
     50 C17        -6.2110   -3.2870   -1.3620 c         1 MOL      0.402918
     51 O10        -6.3930   -4.4310   -1.8440 o         1 MOL     -0.549497
     52 C18        -4.8950   -2.1690   -3.2860 c3        1 MOL     -0.165500
     53 C19        -3.6100   -2.4230   -2.4560 c         1 MOL      0.624644
     54 N6         -2.5210   -2.6810   -3.1330 n         1 MOL     -0.655030
     55 O11        -3.5300   -2.4670   -1.2120 o         1 MOL     -0.570793
     56 H20        -5.4340   -0.2820   -1.4470 hn        1 MOL      0.209337
     57 H21        -7.0960   -2.2620   -3.0040 h1        1 MOL      0.121537
     58 H22        -4.8750   -1.2880   -3.9210 hc        1 MOL      0.058842
     59 H23        -5.0330   -3.0140   -3.9660 hc        1 MOL      0.058842
     60 H24        -2.4520   -2.6240   -4.1380 hn        1 MOL      0.332009
     61 H25        -1.6370   -2.9720   -2.7370 hn        1 MOL      0.332009
     62 N7         -6.0980   -2.9890   -0.1200 n         1 MOL     -0.109390
     63 C20        -6.2090   -3.9800    0.9790 c3        1 MOL     -0.317450
     64 C21        -4.9040   -4.5040    1.6350 c         1 MOL      0.642777
     65 O12        -4.9650   -5.3770    2.5060 o         1 MOL     -0.610739
     66 H26        -6.1120   -2.0220    0.1980 hn        1 MOL      0.176186
     67 H27        -6.8120   -4.8120    0.6140 h1        1 MOL      0.113624
     68 H28        -6.5660   -3.5860    1.9340 h1        1 MOL      0.113624
     69 N8         -3.7770   -4.0830    1.0920 n         1 MOL     -0.236299
     70 C22        -2.4660   -4.5110    1.5700 c3        1 MOL     -0.350203
     71 C23        -1.4870   -3.3770    1.8550 c         1 MOL      0.723540
     72 O13        -1.5310   -2.3330    1.2580 o         1 MOL     -0.698944
     73 C24        -1.7910   -5.4680    0.5100 c3        1 MOL      0.469344
     74 C25        -2.5120   -6.8500    0.5250 c3        1 MOL     -0.370091
     75 O14        -1.9040   -5.0250   -0.8040 oh        1 MOL     -0.601274
     76 H29        -3.8500   -3.4780    0.2850 hn        1 MOL      0.262898
     77 H30        -2.6470   -5.0470    2.4970 h1        1 MOL      0.121457
     78 H31        -0.7310   -5.5640    0.7640 h1        1 MOL     -0.019944
     79 H32        -1.8380   -4.0660   -0.8670 ho        1 MOL      0.383637
     80 H33        -3.5030   -6.8850    0.0730 hc        1 MOL      0.093882
     81 H34        -1.8750   -7.6050    0.0670 hc        1 MOL      0.093882
     82 H35        -2.6280   -7.2860    1.5210 hc        1 MOL      0.093882
     83 N9         -0.3750   -3.6850    2.5580 n         1 MOL     -0.559915
     84 C26         0.8930   -2.9020    2.4880 c3        1 MOL      0.129006
     85 C27         1.7120   -3.1780    1.2350 c         1 MOL      0.590451
     86 O15         2.2410   -4.2010    1.0110 o         1 MOL     -0.576104
     87 C28         1.6690   -3.1240    3.8210 c3        1 MOL     -0.094182
     88 C29         1.0270   -2.3840    5.0260 c3        1 MOL      0.017737
     89 C30         3.1450   -2.7120    3.7180 c3        1 MOL     -0.073140
     90 C31         1.5320   -2.6040    6.4070 c3        1 MOL      0.011893
     91 H36        -0.3040   -4.5920    2.9830 hn        1 MOL      0.275606
     92 H37         0.7020   -1.8390    2.6200 h1        1 MOL      0.058973
     93 H38         1.5630   -4.1760    4.0780 hc        1 MOL      0.027138
     94 H39        -0.0590   -2.4580    5.0240 hc        1 MOL      0.005058
     95 H40         1.1050   -1.3060    4.8800 hc        1 MOL      0.005058
     96 H41         3.1970   -1.7730    3.1690 hc        1 MOL      0.014015
     97 H42         3.6790   -2.5760    4.6660 hc        1 MOL      0.014015
     98 H43         3.7300   -3.3950    3.1170 hc        1 MOL      0.014015
     99 H44         0.8770   -2.1210    7.1310 hc        1 MOL     -0.004854
    100 H45         1.5390   -3.6540    6.6760 hc        1 MOL     -0.004854
    101 H46         2.5490   -2.2380    6.5950 hc        1 MOL     -0.004854
    102 N10         1.8200   -2.1220    0.4270 n         1 MOL     -0.179881
    103 C32         2.7730   -1.9840   -0.7230 c3        1 MOL     -0.051682
    104 C33         4.2480   -1.5540   -0.4810 c         1 MOL      0.526455
    105 O16         4.6800   -0.9340    0.4700 o         1 MOL     -0.412594
    106 C34         2.0480   -1.1640   -1.8490 c3        1 MOL     -0.201447
    107 C35         0.6420   -1.6490   -2.1920 c         1 MOL      0.674648
    108 O17         0.4680   -2.3200   -3.2800 o         1 MOL     -0.677189
    109 O18        -0.3830   -1.4330   -1.4220 o         1 MOL     -0.677189
    110 H47         1.4650   -1.2290    0.7530 hn        1 MOL      0.155207
    111 H48         2.8720   -3.0150   -1.0780 h1        1 MOL      0.066024
    112 H49         2.5940   -1.0950   -2.7860 hc        1 MOL      0.061923
    113 H50         2.0440   -0.1290   -1.5180 hc        1 MOL      0.061923
    114 N11         5.1090   -1.7420   -1.4940 n         1 MOL     -0.590358
    115 C36         6.5230   -1.4080   -1.5410 c3        1 MOL      0.367609
    116 C37         6.8180    0.0750   -1.1250 c         1 MOL      0.333934
    117 O19         7.6800    0.2900   -0.2650 o         1 MOL     -0.495952
    118 C38         7.1170   -1.7030   -2.8840 c3        1 MOL     -0.318211
    119 C39         8.6660   -1.5130   -2.8860 ca        1 MOL      0.204982
    120 C40         9.2970   -0.5440   -3.7190 ca        1 MOL     -0.242276
    121 C41         9.4290   -2.3870   -2.1570 ca        1 MOL     -0.242276
    122 C42        10.6980   -0.4510   -3.8520 ca        1 MOL     -0.036365
    123 C43        10.8230   -2.2990   -2.2840 ca        1 MOL     -0.036365
    124 C44        11.4790   -1.3820   -3.0940 ca        1 MOL     -0.187348
    125 H51         4.7980   -2.1120   -2.3820 hn        1 MOL      0.300508
    126 H52         7.0430   -2.0670   -0.8400 h1        1 MOL      0.033995
    127 H53         6.6130   -1.1000   -3.6440 hc        1 MOL      0.090871
    128 H54         6.9150   -2.7440   -3.1150 hc        1 MOL      0.090871
    129 H55         8.6540    0.1810   -4.1990 ha        1 MOL      0.134535
    130 H56         8.9840   -3.0610   -1.4440 ha        1 MOL      0.134535
    131 H57        11.1300    0.2910   -4.5080 ha        1 MOL      0.092815
    132 H58        11.4830   -3.0050   -1.8050 ha        1 MOL      0.092815
    133 H59        12.5600   -1.4390   -3.1150 ha        1 MOL      0.115075
    134 N12         6.1510    1.0850   -1.7370 n         1 MOL     -0.090157
    135 C45         6.3820    2.4880   -1.3400 c3        1 MOL     -0.010498
    136 C46         5.8780    2.7790    0.1230 c         1 MOL      0.467916
    137 O20         6.5110    3.4480    0.8480 o         1 MOL     -0.524203
    138 C47         5.8010    3.4120   -2.3710 c3        1 MOL     -0.211656
    139 C48         4.4800    2.6120   -2.6550 c3        1 MOL      0.076551
    140 C49         4.9660    1.0880   -2.5620 c3        1 MOL     -0.104670
    141 H60         7.4570    2.6140   -1.2560 h1        1 MOL      0.068407
    142 H61         5.6250    4.3820   -1.9120 hc        1 MOL      0.078361
    143 H62         6.4160    3.5220   -3.2630 hc        1 MOL      0.078361
    144 H63         3.6910    2.8320   -1.9320 hc        1 MOL      0.017389
    145 H64         3.9960    2.8870   -3.5840 hc        1 MOL      0.017389
    146 H65         4.1570    0.4400   -2.2410 h1        1 MOL      0.039999
    147 H66         5.2460    0.8140   -3.5810 h1        1 MOL      0.039999
    148 N13         4.8420    2.0530    0.5670 n         1 MOL     -0.190312
    149 C50         4.2320    2.2050    1.8310 c3        1 MOL     -0.219540
    150 C51         5.1060    1.5880    2.9120 c         1 MOL      0.504734
    151 O21         5.1100    1.9920    4.0410 o         1 MOL     -0.572853
    152 C52         2.8240    1.5770    1.8070 c3        1 MOL      0.094459
    153 C53         1.9240    2.1800    0.7350 c3        1 MOL      0.004656
    154 C54         0.5420    1.4880    0.6570 c         1 MOL      0.627245
    155 O22        -0.3840    1.8860   -0.0340 o         1 MOL     -0.709256
    156 O23         0.3700    0.4960    1.3700 o         1 MOL     -0.709256
    157 H67         4.6180    1.2650   -0.0120 hn        1 MOL      0.249938
    158 H68         4.1780    3.2650    2.0710 h1        1 MOL      0.130908
    159 H69         2.4010    1.6600    2.8010 hc        1 MOL      0.005157
    160 H70         3.1010    0.5620    1.5530 hc        1 MOL      0.005157
    161 H71         2.3860    2.2470   -0.2500 hc        1 MOL      0.003607
    162 H72         1.7910    3.2310    0.9620 hc        1 MOL      0.003607
    163 N14         5.9530    0.6300    2.5080 n         1 MOL     -0.028250
    164 C55         6.9760   -0.0140    3.3080 c3        1 MOL     -0.341406
    165 H73         6.9070    0.3390    4.3370 h1        1 MOL      0.112547
    166 H74         6.8290   -1.0940    3.2840 h1        1 MOL      0.112547
    167 H75         7.9600    0.2290    2.9070 h1        1 MOL      0.112547
    168 H76         5.8730    0.2650    1.5650 hn        1 MOL      0.062463
    169 Ca1        -2.1900   -0.0630    0.0040 Ca        1 MOL      1.765585
    170 O24        -1.6940    0.1580    2.6480 oh        1 MOL     -0.816567
    171 H77        -0.7440    0.1590    2.5350 ho        1 MOL      0.391016
    172 H78        -1.8220    0.3780    3.5770 ho        1 MOL      0.391016
    173 O25        -4.8630   -0.7320    1.3440 oh        1 MOL     -0.816567
    174 H79        -4.9740    0.2210    1.3440 ho        1 MOL      0.391016
    175 H80        -5.3370   -1.0280    2.1140 ho        1 MOL      0.391016
@<TRIPOS>BOND
     1    1    2 1   
     2    1    4 1   
     3    1    5 1   
     4    1    6 1   
     5    2    3 2   
     6    2    7 1   
     7    7    8 1   
     8    7   15 1   
     9    8    9 1   
    10    8   11 1   
    11    8   16 1   
    12    9   10 2   
    13    9   19 1   
    14   11   12 1   
    15   11   17 1   
    16   11   18 1   
    17   12   13 1   
    18   12   14 1   
    19   19   20 1   
    20   19   24 1   
    21   20   21 1   
    22   20   23 1   
    23   20   25 1   
    24   21   22 2   
    25   21   29 1   
    26   23   26 1   
    27   23   27 1   
    28   23   28 1   
    29   29   30 1   
    30   29   37 1   
    31   30   31 1   
    32   30   33 1   
    33   30   38 1   
    34   31   32 2   
    35   31   41 1   
    36   33   34 1   
    37   33   39 1   
    38   33   40 1   
    39   34   35 1   
    40   34   36 1   
    41   41   42 1   
    42   41   45 1   
    43   42   43 1   
    44   42   46 1   
    45   42   47 1   
    46   43   44 2   
    47   43   48 1   
    48   48   49 1   
    49   48   56 1   
    50   49   50 1   
    51   49   52 1   
    52   49   57 1   
    53   50   51 2   
    54   50   62 1   
    55   52   53 1   
    56   52   58 1   
    57   52   59 1   
    58   53   54 1   
    59   53   55 2   
    60   54   60 1   
    61   54   61 1   
    62   62   63 1   
    63   62   66 1   
    64   63   64 1   
    65   63   67 1   
    66   63   68 1   
    67   64   65 2   
    68   64   69 1   
    69   69   70 1   
    70   69   76 1   
    71   70   71 1   
    72   70   73 1   
    73   70   77 1   
    74   71   72 2   
    75   71   83 1   
    76   73   74 1   
    77   73   75 1   
    78   73   78 1   
    79   74   80 1   
    80   74   81 1   
    81   74   82 1   
    82   75   79 1   
    83   83   84 1   
    84   83   91 1   
    85   84   85 1   
    86   84   87 1   
    87   84   92 1   
    88   85   86 2   
    89   85  102 1   
    90   87   88 1   
    91   87   89 1   
    92   87   93 1   
    93   88   90 1   
    94   88   94 1   
    95   88   95 1   
    96   89   96 1   
    97   89   97 1   
    98   89   98 1   
    99   90   99 1   
   100   90  100 1   
   101   90  101 1   
   102  102  103 1   
   103  102  110 1   
   104  103  104 1   
   105  103  106 1   
   106  103  111 1   
   107  104  105 2   
   108  104  114 1   
   109  106  107 1   
   110  106  112 1   
   111  106  113 1   
   112  107  108 1   
   113  107  109 1   
   114  114  115 1   
   115  114  125 1   
   116  115  116 1   
   117  115  118 1   
   118  115  126 1   
   119  116  117 2   
   120  116  134 1   
   121  118  119 1   
   122  118  127 1   
   123  118  128 1   
   124  119  120 ar  
   125  119  121 ar  
   126  120  122 ar  
   127  120  129 1   
   128  121  123 ar  
   129  121  130 1   
   130  122  124 ar  
   131  122  131 1   
   132  123  124 ar  
   133  123  132 1   
   134  124  133 1   
   135  134  135 1   
   136  134  140 1   
   137  135  136 1   
   138  135  138 1   
   139  135  141 1   
   140  136  137 2   
   141  136  148 1   
   142  138  139 1   
   143  138  142 1   
   144  138  143 1   
   145  139  140 1   
   146  139  144 1   
   147  139  145 1   
   148  140  146 1   
   149  140  147 1   
   150  148  149 1   
   151  148  157 1   
   152  149  150 1   
   153  149  152 1   
   154  149  158 1   
   155  150  151 2   
   156  150  163 1   
   157  152  153 1   
   158  152  159 1   
   159  152  160 1   
   160  153  154 1   
   161  153  161 1   
   162  153  162 1   
   163  154  155 1   
   164  154  156 1   
   165  163  164 1   
   166  163  168 1   
   167  164  165 1   
   168  164  166 1   
   169  164  167 1   
   170  170  171 1   
   171  170  172 1   
   172  173  174 1   
   173  173  175 1   
@<TRIPOS>SUBSTRUCTURE
     1 MOL         1 TEMP              0 ****  ****    0 ROOT
