@<TRIPOS>MOLECULE
MOL
  186   183     1     0     0
SMALL
resp


@<TRIPOS>ATOM
      1 C1         -1.1420    2.5490    6.2750 c3        1 MOL     -0.344890
      2 C2         -1.2200    2.4340    4.7320 c         1 MOL      0.743411
      3 O1         -0.8300    1.3660    4.2190 o         1 MOL     -0.625926
      4 H1         -0.3380    1.9120    6.6460 hc        1 MOL      0.083723
      5 H2         -0.9430    3.5830    6.5540 hc        1 MOL      0.083723
      6 H3         -2.0890    2.2290    6.7110 hc        1 MOL      0.083723
      7 N1         -1.7790    3.4730    4.0970 n         1 MOL     -0.618551
      8 C3         -2.3110    3.4430    2.7150 c3        1 MOL      0.244030
      9 C4         -2.0800    4.6720    1.8420 c         1 MOL      0.457503
     10 O2         -2.0280    5.7580    2.3790 o         1 MOL     -0.587888
     11 C5         -3.8100    3.2560    2.9800 c3        1 MOL     -0.162105
     12 C6         -4.6670    3.0370    1.6910 c         1 MOL      0.634358
     13 O3         -4.1120    2.3980    0.8120 o         1 MOL     -0.652401
     14 O4         -5.8130    3.5390    1.5710 o         1 MOL     -0.652401
     15 H4         -2.0580    4.2310    4.7030 hn        1 MOL      0.334150
     16 H5         -1.8630    2.5510    2.2690 h1        1 MOL      0.005609
     17 H6         -4.1580    3.9730    3.7330 hc        1 MOL      0.007460
     18 H7         -3.9070    2.3530    3.5960 hc        1 MOL      0.007460
     19 N2         -1.8850    4.4590    0.5540 n         1 MOL     -0.021821
     20 C7         -1.8730    5.5150   -0.5380 c3        1 MOL     -0.215420
     21 C8         -2.9770    5.3440   -1.6360 c         1 MOL      0.478798
     22 O5         -3.2510    6.1850   -2.5080 o         1 MOL     -0.554797
     23 C9         -0.4750    5.6470   -1.2130 c3        1 MOL      0.291793
     24 C10        -0.1470    4.4050   -2.0730 c3        1 MOL     -0.016826
     25 C11         0.4960    5.9660   -0.1130 c3        1 MOL     -0.408992
     26 C12         1.2030    4.5080   -2.7050 c3        1 MOL     -0.195108
     27 H8         -1.8240    3.4760    0.3420 hn        1 MOL      0.043906
     28 H9         -2.1290    6.4730   -0.0770 h1        1 MOL      0.110134
     29 H10        -0.4900    6.5040   -1.9030 hc        1 MOL     -0.042384
     30 H11        -0.9140    4.4500   -2.8390 hc        1 MOL      0.065496
     31 H12        -0.1920    3.4960   -1.4780 hc        1 MOL      0.065496
     32 H13         1.4920    6.2010   -0.5040 hc        1 MOL      0.090300
     33 H14         0.0890    6.8570    0.3750 hc        1 MOL      0.090300
     34 H15         0.6120    5.1190    0.5570 hc        1 MOL      0.090300
     35 H16         1.4930    5.4920   -3.0760 hc        1 MOL      0.040461
     36 H17         1.9780    4.1030   -2.0470 hc        1 MOL      0.040461
     37 H18         1.2980    4.0140   -3.6660 hc        1 MOL      0.040461
     38 N3         -3.6900    4.1800   -1.5940 n         1 MOL     -0.389779
     39 C13        -4.4660    3.7480   -2.7800 c3        1 MOL      0.027110
     40 C14        -5.7770    2.9320   -2.5250 c         1 MOL      0.330580
     41 O6         -6.5340    2.7310   -3.4920 o         1 MOL     -0.566392
     42 C15        -3.5210    2.9780   -3.6930 c3        1 MOL     -0.110525
     43 C16        -2.8710    1.7200   -2.9880 c         1 MOL      0.668066
     44 O7         -3.5560    1.0640   -2.1020 o         1 MOL     -0.651788
     45 O8         -1.7230    1.3620   -3.4320 o         1 MOL     -0.651788
     46 H19        -3.7010    3.5810   -0.7840 hn        1 MOL      0.294677
     47 H20        -4.8280    4.5700   -3.3870 h1        1 MOL      0.092900
     48 H21        -2.7360    3.5890   -4.1210 hc        1 MOL      0.028174
     49 H22        -4.0990    2.5890   -4.5340 hc        1 MOL      0.028174
     50 N4         -6.0230    2.4720   -1.3140 n         1 MOL      0.021818
     51 C17        -7.3080    1.8750   -0.8540 c3        1 MOL     -0.399469
     52 C18        -7.5680    0.4240   -1.2540 c         1 MOL      0.678254
     53 O9         -8.6490   -0.0500   -1.0550 o         1 MOL     -0.656995
     54 H23        -5.3200    2.6840   -0.6200 hn        1 MOL      0.071902
     55 H24        -8.0540    2.4190   -1.4280 h1        1 MOL      0.144991
     56 H25        -7.4540    1.9470    0.2180 h1        1 MOL      0.144991
     57 N5         -6.6080   -0.2120   -1.8280 n         1 MOL     -0.313106
     58 C19        -6.6720   -1.5690   -2.4190 c3        1 MOL      0.005112
     59 C20        -6.9610   -2.7270   -1.4690 c         1 MOL      0.394732
     60 O10        -7.1560   -3.8580   -1.9640 o         1 MOL     -0.516629
     61 C21        -5.4220   -1.8930   -3.3330 c3        1 MOL     -0.247896
     62 C22        -4.0850   -1.8910   -2.5950 c         1 MOL      0.597498
     63 O11        -4.0310   -1.7770   -1.3420 o         1 MOL     -0.634671
     64 O12        -3.0530   -2.2030   -3.2490 o         1 MOL     -0.634671
     65 H26        -5.7280    0.2710   -1.9350 hn        1 MOL      0.209421
     66 H27        -7.5010   -1.6450   -3.1100 h1        1 MOL      0.089134
     67 H28        -5.4760   -1.0820   -4.0660 hc        1 MOL      0.102749
     68 H29        -5.6660   -2.8480   -3.7990 hc        1 MOL      0.102749
     69 N6         -6.9910   -2.5690   -0.1140 n         1 MOL     -0.171440
     70 C23        -7.2450   -3.6620    0.8280 c3        1 MOL     -0.173565
     71 C24        -5.9420   -4.3310    1.2990 c         1 MOL      0.630005
     72 O13        -6.0020   -5.1710    2.2000 o         1 MOL     -0.608419
     73 H30        -7.0360   -1.6090    0.2220 hn        1 MOL      0.234752
     74 H31        -7.9470   -4.3340    0.3310 h1        1 MOL      0.086190
     75 H32        -7.7170   -3.3050    1.7380 h1        1 MOL      0.086190
     76 N7         -4.7830   -3.8770    0.8050 n         1 MOL     -0.202414
     77 C25        -3.5100   -4.4510    1.1510 c3        1 MOL      0.018351
     78 C26        -2.3610   -3.4100    1.2030 c         1 MOL      0.477365
     79 O14        -2.5450   -2.2160    0.9970 o         1 MOL     -0.480593
     80 C27        -3.1260   -5.5550    0.0570 c3        1 MOL     -0.387438
     81 C28        -3.2000   -5.0010   -1.3730 c3        1 MOL     -0.037062
     82 C29        -2.8290   -5.9160   -2.5030 c         1 MOL      0.567500
     83 N8         -2.4360   -5.2360   -3.5550 n         1 MOL     -0.710089
     84 O15        -2.8100   -7.1590   -2.3870 o         1 MOL     -0.601437
     85 H33        -4.7420   -3.1860    0.0790 hn        1 MOL     -0.124986
     86 H34        -3.5910   -5.0140    2.0790 h1        1 MOL      0.057823
     87 H35        -3.9000   -6.3160    0.1780 hc        1 MOL      0.132374
     88 H36        -2.2060   -6.0740    0.3070 hc        1 MOL      0.132374
     89 H37        -2.5090   -4.1600   -1.4420 hc        1 MOL      0.125000
     90 H38        -4.2390   -4.6840   -1.5070 hc        1 MOL      0.125000
     91 H39        -2.5000   -4.2230   -3.5720 hn        1 MOL      0.333526
     92 H40        -1.8840   -5.6510   -4.2830 hn        1 MOL      0.333526
     93 N9         -1.2360   -3.9030    1.7270 n         1 MOL     -0.375561
     94 C30        -0.0990   -3.0660    2.0120 c3        1 MOL      0.022633
     95 C31         1.1200   -3.5440    1.1480 c         1 MOL      0.446965
     96 O16         1.4090   -4.7410    1.1200 o         1 MOL     -0.548130
     97 C32         0.2300   -3.0810    3.5340 c3        1 MOL      0.151417
     98 C33         1.5180   -2.4140    3.9260 c3        1 MOL     -0.328226
     99 C34        -0.8820   -2.3410    4.3080 c3        1 MOL     -0.328226
    100 H41        -1.2230   -4.8760    2.0080 hn        1 MOL      0.269858
    101 H42        -0.2400   -2.0330    1.6970 h1        1 MOL      0.124629
    102 H43         0.2900   -4.1140    3.8580 hc        1 MOL     -0.006735
    103 H44         1.6240   -2.2390    5.0020 hc        1 MOL      0.080314
    104 H45         2.4180   -2.9140    3.5800 hc        1 MOL      0.080314
    105 H46         1.4130   -1.3910    3.5530 hc        1 MOL      0.080314
    106 H47        -0.8620   -1.3180    3.9390 hc        1 MOL      0.080314
    107 H48        -1.8830   -2.7710    4.2110 hc        1 MOL      0.080314
    108 H49        -0.5500   -2.2140    5.3320 hc        1 MOL      0.080314
    109 N10         1.7550   -2.5660    0.4710 n         1 MOL     -0.227087
    110 C35         3.0110   -2.7790   -0.2700 c3        1 MOL      0.060092
    111 C36         4.2870   -2.5900    0.5390 c         1 MOL      0.316663
    112 O17         4.1630   -1.9710    1.5610 o         1 MOL     -0.226977
    113 C37         2.9130   -1.7750   -1.4290 c3        1 MOL     -0.556684
    114 C38         4.1560   -1.7620   -2.2430 c         1 MOL      0.756756
    115 N11         4.3700   -2.7310   -3.1320 n         1 MOL     -0.782054
    116 O18         4.9920   -0.8530   -2.1600 o         1 MOL     -0.515741
    117 H50         1.3920   -1.6220    0.4940 hn        1 MOL      0.267489
    118 H51         3.0160   -3.8340   -0.5410 h1        1 MOL      0.062503
    119 H52         2.7910   -0.7710   -1.0340 hc        1 MOL      0.196032
    120 H53         2.0500   -2.0300   -2.0480 hc        1 MOL      0.196032
    121 H54         3.6750   -3.4570   -3.1920 hn        1 MOL      0.362849
    122 H55         5.2050   -2.7710   -3.7000 hn        1 MOL      0.362849
    123 N12         5.4820   -2.8610    0.0890 n         1 MOL     -0.361737
    124 C39         6.7380   -2.4840    0.7670 c3        1 MOL      0.127324
    125 C40         6.9250   -0.9480    0.9920 c         1 MOL      0.483584
    126 O19         7.4940   -0.6520    2.0520 o         1 MOL     -0.580378
    127 C41         7.9800   -3.1750    0.0920 c3        1 MOL     -0.246952
    128 C42         8.8100   -2.3410   -0.8570 ca        1 MOL     -0.035359
    129 C43         9.8970   -1.5200   -0.3300 ca        1 MOL     -0.082642
    130 C44         8.3400   -2.1720   -2.1140 ca        1 MOL     -0.082642
    131 C45        10.6260   -0.8360   -1.2300 ca        1 MOL     -0.389631
    132 C46         9.0370   -1.3240   -3.0540 ca        1 MOL     -0.389631
    133 C47        10.2010   -0.6430   -2.5730 ca        1 MOL      0.417003
    134 O20        10.8720    0.0380   -3.4470 oh        1 MOL     -0.446036
    135 H56         5.5260   -3.1900   -0.8650 hn        1 MOL      0.194211
    136 H57         6.7270   -2.9200    1.7710 h1        1 MOL      0.054876
    137 H58         7.6870   -4.0870   -0.4160 hc        1 MOL      0.082960
    138 H59         8.6690   -3.3510    0.9170 hc        1 MOL      0.082960
    139 H60        10.3160   -1.7660    0.6330 ha        1 MOL      0.131315
    140 H61         7.4120   -2.6360   -2.4220 ha        1 MOL      0.131315
    141 H62        11.4290   -0.1470   -1.0040 ha        1 MOL      0.174718
    142 H63         8.7050   -1.1660   -4.0760 ha        1 MOL      0.174718
    143 H64        11.7020    0.3450   -3.0840 ho        1 MOL      0.355054
    144 N13         6.4450   -0.0660    0.1450 n         1 MOL     -0.104406
    145 C48         6.4380    1.3840    0.2970 c3        1 MOL     -0.119898
    146 C49         5.3250    1.9100    1.1980 c         1 MOL      0.369099
    147 O21         5.4370    2.9570    1.7650 o         1 MOL     -0.509157
    148 C50         6.4240    2.0560   -1.1170 c3        1 MOL     -0.129603
    149 C51         7.6240    1.7200   -1.9600 c3        1 MOL      0.023648
    150 C52         7.8560    2.9590   -2.8110 c         1 MOL      0.622552
    151 O22         8.6620    3.8650   -2.4400 o         1 MOL     -0.731441
    152 O23         7.1610    2.9630   -3.9030 o         1 MOL     -0.731441
    153 H65         5.9550   -0.2690   -0.7100 hn        1 MOL      0.230878
    154 H66         7.3920    1.6880    0.7440 h1        1 MOL      0.094101
    155 H67         6.3500    3.1370   -0.9920 hc        1 MOL      0.068883
    156 H68         5.5030    1.6290   -1.5160 hc        1 MOL      0.068883
    157 H69         7.4940    0.8710   -2.6360 hc        1 MOL     -0.002672
    158 H70         8.5290    1.6300   -1.3520 hc        1 MOL     -0.002672
    159 N14         4.1810    1.2510    1.2420 n         1 MOL     -0.001792
    160 C53         3.0980    1.5500    2.1960 c3        1 MOL     -0.254868
    161 C54         3.4320    1.0400    3.6310 c         1 MOL      0.495067
    162 O24         3.1170    1.5510    4.7090 o         1 MOL     -0.570979
    163 C55         1.7520    0.9330    1.7960 c3        1 MOL      0.042827
    164 C56         1.1980    1.5060    0.4640 c3        1 MOL     -0.175957
    165 C57        -0.2240    1.0110    0.0820 c         1 MOL      0.894212
    166 O25        -0.3910   -0.2220   -0.2520 o         1 MOL     -0.824128
    167 O26        -1.1690    1.7740    0.2090 o         1 MOL     -0.824128
    168 H71         4.1400    0.3850    0.7150 hn        1 MOL      0.023394
    169 H72         2.9150    2.6260    2.2260 h1        1 MOL      0.141452
    170 H73         0.9820    1.1280    2.5320 hc        1 MOL      0.059676
    171 H74         1.8700   -0.1550    1.7060 hc        1 MOL      0.059676
    172 H75         1.8660    1.1220   -0.3100 hc        1 MOL      0.035966
    173 H76         1.2520    2.5930    0.5440 hc        1 MOL      0.035966
    174 N15         4.0560   -0.1360    3.6460 n         1 MOL      0.107119
    175 C58         4.7100   -0.6840    4.8350 c3        1 MOL     -0.342126
    176 H77         4.7450   -1.7720    4.7610 h1        1 MOL      0.107463
    177 H78         5.7240   -0.2930    4.9060 h1        1 MOL      0.107463
    178 H79         4.1470   -0.3990    5.7240 h1        1 MOL      0.107463
    179 H80         4.0480   -0.7420    2.8470 hn        1 MOL     -0.152108
    180 Ca1        -3.1930    0.0610    0.1270 Ca        1 MOL      1.670861
    181 O27        -5.3550   -0.2380    1.7510 oh        1 MOL     -0.804931
    182 H81        -4.9470   -0.3630    2.6060 ho        1 MOL      0.401731
    183 H82        -6.2920   -0.3180    1.9090 ho        1 MOL      0.401731
    184 O28        -2.6680    0.1690    2.6820 oh        1 MOL     -0.804931
    185 H83        -1.8980    0.7120    2.8730 ho        1 MOL      0.401731
    186 H84        -2.9630   -0.1330    3.5430 ho        1 MOL      0.401731
@<TRIPOS>BOND
     1    1    2 1   
     2    1    4 1   
     3    1    5 1   
     4    1    6 1   
     5    2    3 2   
     6    2    7 1   
     7    7    8 1   
     8    7   15 1   
     9    8    9 1   
    10    8   11 1   
    11    8   16 1   
    12    9   10 2   
    13    9   19 1   
    14   11   12 1   
    15   11   17 1   
    16   11   18 1   
    17   12   13 1   
    18   12   14 1   
    19   19   20 1   
    20   19   27 1   
    21   20   21 1   
    22   20   23 1   
    23   20   28 1   
    24   21   22 2   
    25   21   38 1   
    26   23   24 1   
    27   23   25 1   
    28   23   29 1   
    29   24   26 1   
    30   24   30 1   
    31   24   31 1   
    32   25   32 1   
    33   25   33 1   
    34   25   34 1   
    35   26   35 1   
    36   26   36 1   
    37   26   37 1   
    38   38   39 1   
    39   38   46 1   
    40   39   40 1   
    41   39   42 1   
    42   39   47 1   
    43   40   41 2   
    44   40   50 1   
    45   42   43 1   
    46   42   48 1   
    47   42   49 1   
    48   43   44 1   
    49   43   45 1   
    50   50   51 1   
    51   50   54 1   
    52   51   52 1   
    53   51   55 1   
    54   51   56 1   
    55   52   53 2   
    56   52   57 1   
    57   57   58 1   
    58   57   65 1   
    59   58   59 1   
    60   58   61 1   
    61   58   66 1   
    62   59   60 2   
    63   59   69 1   
    64   61   62 1   
    65   61   67 1   
    66   61   68 1   
    67   62   63 1   
    68   62   64 1   
    69   69   70 1   
    70   69   73 1   
    71   70   71 1   
    72   70   74 1   
    73   70   75 1   
    74   71   72 2   
    75   71   76 1   
    76   76   77 1   
    77   76   85 1   
    78   77   78 1   
    79   77   80 1   
    80   77   86 1   
    81   78   79 2   
    82   78   93 1   
    83   80   81 1   
    84   80   87 1   
    85   80   88 1   
    86   81   82 1   
    87   81   89 1   
    88   81   90 1   
    89   82   83 1   
    90   82   84 2   
    91   83   91 1   
    92   83   92 1   
    93   93   94 1   
    94   93  100 1   
    95   94   95 1   
    96   94   97 1   
    97   94  101 1   
    98   95   96 2   
    99   95  109 1   
   100   97   98 1   
   101   97   99 1   
   102   97  102 1   
   103   98  103 1   
   104   98  104 1   
   105   98  105 1   
   106   99  106 1   
   107   99  107 1   
   108   99  108 1   
   109  109  110 1   
   110  109  117 1   
   111  110  111 1   
   112  110  113 1   
   113  110  118 1   
   114  111  112 2   
   115  111  123 1   
   116  113  114 1   
   117  113  119 1   
   118  113  120 1   
   119  114  115 1   
   120  114  116 2   
   121  115  121 1   
   122  115  122 1   
   123  123  124 1   
   124  123  135 1   
   125  124  125 1   
   126  124  127 1   
   127  124  136 1   
   128  125  126 2   
   129  125  144 1   
   130  127  128 1   
   131  127  137 1   
   132  127  138 1   
   133  128  129 ar  
   134  128  130 ar  
   135  129  131 ar  
   136  129  139 1   
   137  130  132 ar  
   138  130  140 1   
   139  131  133 ar  
   140  131  141 1   
   141  132  133 ar  
   142  132  142 1   
   143  133  134 1   
   144  134  143 1   
   145  144  145 1   
   146  144  153 1   
   147  145  146 1   
   148  145  148 1   
   149  145  154 1   
   150  146  147 2   
   151  146  159 1   
   152  148  149 1   
   153  148  155 1   
   154  148  156 1   
   155  149  150 1   
   156  149  157 1   
   157  149  158 1   
   158  150  151 1   
   159  150  152 1   
   160  159  160 1   
   161  159  168 1   
   162  160  161 1   
   163  160  163 1   
   164  160  169 1   
   165  161  162 2   
   166  161  174 1   
   167  163  164 1   
   168  163  170 1   
   169  163  171 1   
   170  164  165 1   
   171  164  172 1   
   172  164  173 1   
   173  165  166 1   
   174  165  167 1   
   175  174  175 1   
   176  174  179 1   
   177  175  176 1   
   178  175  177 1   
   179  175  178 1   
   180  181  182 1   
   181  181  183 1   
   182  184  185 1   
   183  184  186 1   
@<TRIPOS>SUBSTRUCTURE
     1 MOL         1 TEMP              0 ****  ****    0 ROOT
