@<TRIPOS>MOLECULE
MOL
  186   183     1     0     0
SMALL
resp


@<TRIPOS>ATOM
      1 C1         -1.4040    3.5290    6.3900 c3        1 MOL     -0.370097
      2 C2         -1.2770    3.2260    4.8850 c         1 MOL      0.759321
      3 O1         -0.1480    3.2540    4.3990 o         1 MOL     -0.628445
      4 H1         -1.5780    2.6000    6.9330 hc        1 MOL      0.093705
      5 H2         -0.4840    3.9910    6.7470 hc        1 MOL      0.093705
      6 H3         -2.2410    4.2080    6.5550 hc        1 MOL      0.093705
      7 N1         -2.3560    2.9950    4.1260 n         1 MOL     -0.613917
      8 C3         -2.3890    2.6290    2.6710 c3        1 MOL      0.171058
      9 C4         -2.2430    3.8320    1.8010 c         1 MOL      0.494448
     10 O2         -3.0240    4.7560    1.9350 o         1 MOL     -0.555210
     11 C5         -3.6040    1.7070    2.4890 c3        1 MOL     -0.029739
     12 C6         -3.6760    0.9850    1.1340 c         1 MOL      0.683362
     13 O3         -3.7110   -0.2270    1.0240 o         1 MOL     -0.713875
     14 O4         -3.4820    1.6070    0.0550 o         1 MOL     -0.713875
     15 H4         -3.2120    2.9540    4.6600 hn        1 MOL      0.308442
     16 H5         -1.4950    2.0320    2.4850 h1        1 MOL     -0.065422
     17 H6         -4.4820    2.3290    2.6620 hc        1 MOL      0.018392
     18 H7         -3.7040    0.9470    3.2590 hc        1 MOL      0.018392
     19 N2         -1.4170    3.7560    0.7650 n         1 MOL     -0.260453
     20 C7         -1.1310    4.9600   -0.1630 c3        1 MOL     -0.022383
     21 C8         -2.0820    5.1100   -1.3440 c         1 MOL      0.616102
     22 O5         -2.1460    6.2730   -1.8430 o         1 MOL     -0.585178
     23 C9          0.3850    4.9530   -0.4890 c3        1 MOL     -0.144813
     24 C10         1.2760    5.3050    0.7030 c3        1 MOL     -0.022698
     25 C11         2.8160    5.1440    0.4670 c3        1 MOL     -0.098371
     26 C12         3.5180    5.6010    1.6760 c3        1 MOL      0.046249
     27 N3          4.9840    5.3440    1.6480 n4        1 MOL     -0.288860
     28 H8         -0.8700    2.9130    0.6490 hn        1 MOL      0.184273
     29 H9         -1.3140    5.8810    0.3750 h1        1 MOL      0.085377
     30 H10         0.6300    5.6400   -1.3100 hc        1 MOL      0.052667
     31 H11         0.5680    3.9610   -0.8870 hc        1 MOL      0.052667
     32 H12         1.0400    4.7400    1.6070 hc        1 MOL      0.059901
     33 H13         1.0960    6.3480    0.9980 hc        1 MOL      0.059901
     34 H14         3.2770    5.6290   -0.3960 hc        1 MOL      0.050915
     35 H15         3.0210    4.0750    0.3900 hc        1 MOL      0.050915
     36 H16         2.9830    5.2570    2.5700 hx        1 MOL      0.064926
     37 H17         3.3220    6.6700    1.6780 hx        1 MOL      0.064926
     38 H18         5.4400    5.4900    0.7680 hn        1 MOL      0.304318
     39 H19         5.4800    5.9330    2.2980 hn        1 MOL      0.304318
     40 H20         5.1860    4.4170    1.9940 hn        1 MOL      0.304318
     41 N4         -2.9430    4.1020   -1.6590 n         1 MOL     -0.499419
     42 C13        -3.7800    4.0190   -2.8790 c3        1 MOL      0.175982
     43 C14        -5.2100    3.6190   -2.5710 c         1 MOL      0.429455
     44 O6         -6.1220    4.0280   -3.3030 o         1 MOL     -0.566604
     45 C15        -3.1120    3.0700   -3.8680 c3        1 MOL     -0.229527
     46 C16        -2.7500    1.7260   -3.1250 c         1 MOL      0.728066
     47 O7         -3.6150    0.8560   -2.8900 o         1 MOL     -0.735819
     48 O8         -1.6410    1.6420   -2.6270 o         1 MOL     -0.735819
     49 H21        -2.8600    3.2260   -1.1730 hn        1 MOL      0.295724
     50 H22        -3.8240    5.0200   -3.3160 h1        1 MOL      0.063661
     51 H23        -2.2370    3.5320   -4.3160 hc        1 MOL      0.056191
     52 H24        -3.8290    2.9420   -4.6720 hc        1 MOL      0.056191
     53 N5         -5.4190    2.8590   -1.5100 n         1 MOL     -0.169213
     54 C17        -6.6420    2.2930   -0.9060 c3        1 MOL     -0.140258
     55 C18        -7.1000    0.9290   -1.2590 c         1 MOL      0.587085
     56 O9         -8.1800    0.6000   -0.7680 o         1 MOL     -0.615246
     57 H25        -4.5500    2.5560   -1.0970 hn        1 MOL      0.098018
     58 H26        -7.4960    2.9580   -1.0370 h1        1 MOL      0.098246
     59 H27        -6.5230    2.2230    0.1730 h1        1 MOL      0.098246
     60 N6         -6.3220    0.0330   -1.9230 n         1 MOL     -0.269052
     61 C19        -6.7410   -1.2800   -2.3260 c3        1 MOL     -0.138295
     62 C20        -6.9770   -2.3080   -1.1270 c         1 MOL      0.434353
     63 O10        -7.2490   -3.5050   -1.3120 o         1 MOL     -0.501410
     64 C21        -5.7780   -1.8990   -3.4300 c3        1 MOL     -0.108534
     65 C22        -4.3060   -2.0250   -2.9530 c         1 MOL      0.796531
     66 O11        -3.9650   -2.1660   -1.7300 o         1 MOL     -0.665873
     67 O12        -3.4700   -2.0110   -3.9140 o         1 MOL     -0.665873
     68 H28        -5.4060    0.3560   -2.2010 hn        1 MOL      0.200690
     69 H29        -7.6940   -1.1750   -2.8470 h1        1 MOL      0.117294
     70 H30        -5.7530   -1.2830   -4.3350 hc        1 MOL      0.056839
     71 H31        -6.0820   -2.8730   -3.8040 hc        1 MOL      0.056839
     72 N7         -6.6960   -1.8710    0.1410 n         1 MOL     -0.185635
     73 C23        -6.8920   -2.7430    1.3170 c3        1 MOL     -0.284860
     74 C24        -5.6990   -3.6360    1.4250 c         1 MOL      0.551802
     75 O13        -5.8240   -4.7250    1.9330 o         1 MOL     -0.581185
     76 H32        -6.4020   -0.9280    0.3620 hn        1 MOL      0.284333
     77 H33        -7.6780   -3.5000    1.2790 h1        1 MOL      0.132943
     78 H34        -6.9030   -2.1700    2.2410 h1        1 MOL      0.132943
     79 N8         -4.4900   -3.3810    0.9170 n         1 MOL      0.072336
     80 C25        -3.2010   -4.0480    1.2540 c3        1 MOL     -0.504882
     81 C26        -1.9330   -3.1570    1.3940 c         1 MOL      0.800664
     82 O14        -1.7820   -2.2330    0.6530 o         1 MOL     -0.681460
     83 C27        -2.7510   -5.1110    0.1950 c3        1 MOL      0.583951
     84 C28        -3.4890   -6.4460    0.2850 c3        1 MOL     -0.602627
     85 O15        -2.9040   -4.5370   -1.1270 oh        1 MOL     -0.591344
     86 H35        -4.3550   -2.5230    0.4010 hn        1 MOL     -0.027565
     87 H36        -3.3070   -4.6330    2.1700 h1        1 MOL      0.126362
     88 H37        -1.7050   -5.3950    0.3360 h1        1 MOL     -0.038659
     89 H38        -3.4730   -3.7770   -1.0220 ho        1 MOL      0.303638
     90 H39        -3.6360   -6.8820    1.2740 hc        1 MOL      0.153653
     91 H40        -4.4430   -6.2050   -0.1850 hc        1 MOL      0.153653
     92 H41        -3.1490   -7.2020   -0.4170 hc        1 MOL      0.153653
     93 N9         -0.9920   -3.5520    2.3180 n         1 MOL     -0.548546
     94 C29         0.2930   -2.9010    2.5680 c3        1 MOL      0.225976
     95 C30         1.3080   -3.6580    1.7800 c         1 MOL      0.280056
     96 O16         1.8230   -4.7230    2.2040 o         1 MOL     -0.541454
     97 C31         0.6240   -2.6660    4.0590 c3        1 MOL      0.037911
     98 C32        -0.3570   -1.6340    4.6210 c3        1 MOL     -0.044426
     99 C33         2.0350   -2.1850    4.2710 c3        1 MOL     -0.220098
    100 C34        -0.3030   -0.1380    4.0800 c3        1 MOL     -0.042793
    101 H42        -1.2090   -4.4280    2.7850 hn        1 MOL      0.290470
    102 H43         0.2290   -1.9270    2.0850 h1        1 MOL      0.015018
    103 H44         0.5330   -3.6330    4.5570 hc        1 MOL      0.034433
    104 H45        -0.3150   -1.6590    5.7100 hc        1 MOL      0.002664
    105 H46        -1.3530   -2.0290    4.4370 hc        1 MOL      0.002664
    106 H47         2.1890   -1.1860    3.8480 hc        1 MOL      0.061686
    107 H48         2.1450   -2.1040    5.3530 hc        1 MOL      0.061686
    108 H49         2.7470   -2.8760    3.8350 hc        1 MOL      0.061686
    109 H50        -0.9780    0.5150    4.6370 hc        1 MOL      0.036628
    110 H51         0.6950    0.2820    4.2210 hc        1 MOL      0.036628
    111 H52        -0.5470   -0.0410    3.0160 hc        1 MOL      0.036628
    112 N10         1.6840   -3.1040    0.6400 n         1 MOL     -0.018557
    113 C35         2.6860   -3.5580   -0.2620 c3        1 MOL     -0.089965
    114 C36         4.0760   -3.0350    0.1320 c         1 MOL      0.506991
    115 O17         4.2560   -2.3040    1.1200 o         1 MOL     -0.461949
    116 C37         2.2100   -3.1910   -1.7070 c3        1 MOL      0.248282
    117 C38         0.9180   -3.9210   -2.0490 c3        1 MOL     -0.218583
    118 O18         2.0930   -1.8680   -2.0370 oh        1 MOL     -0.633308
    119 H53         1.3390   -2.1770    0.4680 hn        1 MOL      0.114319
    120 H54         2.8250   -4.6380   -0.2300 h1        1 MOL      0.096765
    121 H55         2.9410   -3.5990   -2.4110 h1        1 MOL     -0.007286
    122 H56         1.3790   -1.5070   -1.5090 ho        1 MOL      0.369785
    123 H57         0.9710   -5.0070   -2.0270 hc        1 MOL      0.054624
    124 H58         0.1710   -3.5310   -1.3620 hc        1 MOL      0.054624
    125 H59         0.4700   -3.5360   -2.9670 hc        1 MOL      0.054624
    126 N11         5.1020   -3.2810   -0.6650 n         1 MOL     -0.444994
    127 C39         6.4910   -2.7910   -0.5190 c3        1 MOL      0.196807
    128 C40         6.6190   -1.2710   -0.3620 c         1 MOL      0.116591
    129 O19         7.2520   -0.8990    0.6370 o         1 MOL     -0.463034
    130 C41         7.4170   -3.1790   -1.7080 c3        1 MOL      0.367166
    131 C42         8.9110   -3.2080   -1.4250 c3        1 MOL     -0.432647
    132 O20         7.1340   -4.5440   -2.0190 oh        1 MOL     -0.572133
    133 H60         4.9380   -4.0490   -1.3020 hn        1 MOL      0.220874
    134 H61         6.8890   -3.2360    0.3960 h1        1 MOL      0.110134
    135 H62         7.1360   -2.6260   -2.6100 h1        1 MOL     -0.025665
    136 H63         7.0150   -4.4880   -2.9750 ho        1 MOL      0.367855
    137 H64         9.0740   -2.2650   -0.9020 hc        1 MOL      0.120165
    138 H65         9.1240   -3.9120   -0.6220 hc        1 MOL      0.120165
    139 H66         9.5300   -3.3490   -2.3070 hc        1 MOL      0.120165
    140 N12         6.0250   -0.4280   -1.1930 n         1 MOL     -0.020640
    141 C43         6.1000    1.0020   -1.1700 c3        1 MOL     -0.279214
    142 C44         5.4390    1.6000    0.0710 c         1 MOL      0.586449
    143 O21         5.3740    2.8310    0.1630 o         1 MOL     -0.640748
    144 C45         5.5040    1.5890   -2.4780 c3        1 MOL     -0.175810
    145 C46         6.2480    1.0920   -3.7300 c3        1 MOL      0.052715
    146 C47         7.6270    1.7270   -3.9330 c3        1 MOL     -0.221998
    147 C48         8.4240    0.8370   -4.8410 c3        1 MOL      0.179329
    148 N13         9.6960    1.4110   -5.3740 n4        1 MOL     -0.245937
    149 H67         5.5020   -0.8200   -1.9660 hn        1 MOL      0.169902
    150 H68         7.1530    1.2500   -1.1570 h1        1 MOL      0.152824
    151 H69         5.5670    2.6750   -2.4660 hc        1 MOL      0.124164
    152 H70         4.4320    1.4110   -2.4990 hc        1 MOL      0.124164
    153 H71         5.5730    1.4090   -4.5190 hc        1 MOL      0.045557
    154 H72         6.3600    0.0070   -3.7630 hc        1 MOL      0.045557
    155 H73         8.1590    1.9370   -3.0110 hc        1 MOL      0.082417
    156 H74         7.5290    2.6690   -4.4780 hc        1 MOL      0.082417
    157 H75         7.8080    0.5520   -5.6960 hx        1 MOL      0.032584
    158 H76         8.5940   -0.0950   -4.2990 hx        1 MOL      0.032584
    159 H77        10.2380    0.7900   -5.9680 hn        1 MOL      0.264151
    160 H78         9.6510    2.2820   -5.8760 hn        1 MOL      0.264151
    161 H79        10.3700    1.7100   -4.6970 hn        1 MOL      0.264151
    162 N14         4.8570    0.8020    0.9210 n         1 MOL     -0.331285
    163 C49         3.8740    1.2550    1.8930 c3        1 MOL     -0.029152
    164 C50         4.2490    0.7510    3.3000 c         1 MOL      0.412171
    165 O22         3.8380    1.2550    4.2930 o         1 MOL     -0.496836
    166 C51         2.4860    0.7830    1.4960 c3        1 MOL      0.090758
    167 C52         2.0440    0.9920    0.1120 c3        1 MOL      0.153238
    168 C53         0.6320    0.3720   -0.0880 c         1 MOL      0.252747
    169 O23         0.4850   -0.8420   -0.4290 o         1 MOL     -0.427722
    170 O24        -0.3670    0.9950    0.2480 o         1 MOL     -0.427722
    171 H80         4.8040   -0.1250    0.5240 hn        1 MOL      0.146433
    172 H81         3.8150    2.3370    1.8770 h1        1 MOL      0.114298
    173 H82         1.7520    1.1490    2.2080 hc        1 MOL      0.025743
    174 H83         2.4930   -0.3000    1.5910 hc        1 MOL      0.025743
    175 H84         2.8320    0.7510   -0.6040 hc        1 MOL     -0.036581
    176 H85         1.9070    2.0650    0.0120 hc        1 MOL     -0.036581
    177 N15         5.1120   -0.2830    3.4520 n         1 MOL     -0.282388
    178 C54         5.5100   -0.8630    4.7160 c3        1 MOL     -0.138202
    179 H86         5.0010   -1.8170    4.8530 h1        1 MOL      0.082489
    180 H87         6.5880   -1.0230    4.7200 h1        1 MOL      0.082489
    181 H88         5.2390   -0.1870    5.5280 h1        1 MOL      0.082489
    182 H89         5.4990   -0.7650    2.6530 hn        1 MOL      0.267037
    183 Ca1        -2.1210   -0.4490   -1.1220 Ca        1 MOL      1.743397
    184 O25        -0.8040   -1.0680   -3.3700 oh        1 MOL     -0.867747
    185 H90        -1.4610   -1.2980   -4.0350 ho        1 MOL      0.417314
    186 H91         0.0120   -0.9620   -3.8710 ho        1 MOL      0.417314
@<TRIPOS>BOND
     1    1    2 1   
     2    1    4 1   
     3    1    5 1   
     4    1    6 1   
     5    2    3 2   
     6    2    7 1   
     7    7    8 1   
     8    7   15 1   
     9    8    9 1   
    10    8   11 1   
    11    8   16 1   
    12    9   10 2   
    13    9   19 1   
    14   11   12 1   
    15   11   17 1   
    16   11   18 1   
    17   12   13 1   
    18   12   14 1   
    19   19   20 1   
    20   19   28 1   
    21   20   21 1   
    22   20   23 1   
    23   20   29 1   
    24   21   22 2   
    25   21   41 1   
    26   23   24 1   
    27   23   30 1   
    28   23   31 1   
    29   24   25 1   
    30   24   32 1   
    31   24   33 1   
    32   25   26 1   
    33   25   34 1   
    34   25   35 1   
    35   26   27 1   
    36   26   36 1   
    37   26   37 1   
    38   27   38 1   
    39   27   39 1   
    40   27   40 1   
    41   41   42 1   
    42   41   49 1   
    43   42   43 1   
    44   42   45 1   
    45   42   50 1   
    46   43   44 2   
    47   43   53 1   
    48   45   46 1   
    49   45   51 1   
    50   45   52 1   
    51   46   47 1   
    52   46   48 1   
    53   53   54 1   
    54   53   57 1   
    55   54   55 1   
    56   54   58 1   
    57   54   59 1   
    58   55   56 2   
    59   55   60 1   
    60   60   61 1   
    61   60   68 1   
    62   61   62 1   
    63   61   64 1   
    64   61   69 1   
    65   62   63 2   
    66   62   72 1   
    67   64   65 1   
    68   64   70 1   
    69   64   71 1   
    70   65   66 1   
    71   65   67 1   
    72   72   73 1   
    73   72   76 1   
    74   73   74 1   
    75   73   77 1   
    76   73   78 1   
    77   74   75 2   
    78   74   79 1   
    79   79   80 1   
    80   79   86 1   
    81   80   81 1   
    82   80   83 1   
    83   80   87 1   
    84   81   82 2   
    85   81   93 1   
    86   83   84 1   
    87   83   85 1   
    88   83   88 1   
    89   84   90 1   
    90   84   91 1   
    91   84   92 1   
    92   85   89 1   
    93   93   94 1   
    94   93  101 1   
    95   94   95 1   
    96   94   97 1   
    97   94  102 1   
    98   95   96 2   
    99   95  112 1   
   100   97   98 1   
   101   97   99 1   
   102   97  103 1   
   103   98  100 1   
   104   98  104 1   
   105   98  105 1   
   106   99  106 1   
   107   99  107 1   
   108   99  108 1   
   109  100  109 1   
   110  100  110 1   
   111  100  111 1   
   112  112  113 1   
   113  112  119 1   
   114  113  114 1   
   115  113  116 1   
   116  113  120 1   
   117  114  115 2   
   118  114  126 1   
   119  116  117 1   
   120  116  118 1   
   121  116  121 1   
   122  117  123 1   
   123  117  124 1   
   124  117  125 1   
   125  118  122 1   
   126  126  127 1   
   127  126  133 1   
   128  127  128 1   
   129  127  130 1   
   130  127  134 1   
   131  128  129 2   
   132  128  140 1   
   133  130  131 1   
   134  130  132 1   
   135  130  135 1   
   136  131  137 1   
   137  131  138 1   
   138  131  139 1   
   139  132  136 1   
   140  140  141 1   
   141  140  149 1   
   142  141  142 1   
   143  141  144 1   
   144  141  150 1   
   145  142  143 2   
   146  142  162 1   
   147  144  145 1   
   148  144  151 1   
   149  144  152 1   
   150  145  146 1   
   151  145  153 1   
   152  145  154 1   
   153  146  147 1   
   154  146  155 1   
   155  146  156 1   
   156  147  148 1   
   157  147  157 1   
   158  147  158 1   
   159  148  159 1   
   160  148  160 1   
   161  148  161 1   
   162  162  163 1   
   163  162  171 1   
   164  163  164 1   
   165  163  166 1   
   166  163  172 1   
   167  164  165 2   
   168  164  177 1   
   169  166  167 1   
   170  166  173 1   
   171  166  174 1   
   172  167  168 1   
   173  167  175 1   
   174  167  176 1   
   175  168  169 1   
   176  168  170 1   
   177  177  178 1   
   178  177  182 1   
   179  178  179 1   
   180  178  180 1   
   181  178  181 1   
   182  184  185 1   
   183  184  186 1   
@<TRIPOS>SUBSTRUCTURE
     1 MOL         1 TEMP              0 ****  ****    0 ROOT
