@<TRIPOS>MOLECULE
MOL
  189   185     1     0     0
SMALL
resp


@<TRIPOS>ATOM
      1 C1         -0.0230    1.9520    6.0000 c3        1 MOL     -0.241436
      2 C2         -0.4190    2.0190    4.4870 c         1 MOL      0.475172
      3 O1          0.3060    2.3900    3.6150 o         1 MOL     -0.500196
      4 H1          0.7150    1.1640    6.1480 hc        1 MOL      0.073744
      5 H2          0.4000    2.9080    6.3070 hc        1 MOL      0.073744
      6 H3         -0.9080    1.7360    6.5980 hc        1 MOL      0.073744
      7 N1         -1.5650    1.4500    4.0500 n         1 MOL     -0.385154
      8 C3         -2.0660    1.4610    2.6910 c3        1 MOL      0.126175
      9 C4         -2.0630    2.8510    2.1120 c         1 MOL      0.151116
     10 O2         -2.7140    3.8100    2.6170 o         1 MOL     -0.561386
     11 C5         -3.4280    0.8100    2.6110 c3        1 MOL     -0.434523
     12 C6         -4.0010    0.6330    1.2260 c         1 MOL      1.031060
     13 O3         -3.3520    0.8580    0.1920 o         1 MOL     -0.754943
     14 O4         -5.0780    0.0410    1.1530 o         1 MOL     -0.754943
     15 H4         -2.2830    1.0740    4.6620 hn        1 MOL      0.288685
     16 H5         -1.3060    1.0180    2.0560 h1        1 MOL      0.051965
     17 H6         -4.1310    1.4710    3.1200 hc        1 MOL      0.105530
     18 H7         -3.3360   -0.1600    3.0880 hc        1 MOL      0.105530
     19 N2         -1.3220    3.2390    1.0800 n         1 MOL      0.268638
     20 C7         -1.2320    4.5750    0.5430 c3        1 MOL      0.030665
     21 C8         -2.2150    4.8600   -0.6600 c         1 MOL      0.376207
     22 O5         -2.1970    5.9770   -1.2020 o         1 MOL     -0.566987
     23 C9          0.2230    5.0460    0.3150 c3        1 MOL     -0.071779
     24 C10         1.2640    5.0190    1.4630 c3        1 MOL     -0.032023
     25 C11         1.0200    6.0000    2.6480 c3        1 MOL     -0.103430
     26 C12        -0.0220    5.4480    3.6090 c3        1 MOL      0.365614
     27 N3         -0.1440    6.4260    4.6490 n4        1 MOL     -0.474184
     28 H8         -0.8420    2.5310    0.5270 hn        1 MOL      0.044106
     29 H9         -1.6940    5.2320    1.2790 h1        1 MOL      0.011115
     30 H10         0.2850    6.0870   -0.0070 hc        1 MOL      0.045714
     31 H11         0.5850    4.4630   -0.5420 hc        1 MOL      0.045714
     32 H12         2.1510    5.4570    1.0220 hc        1 MOL      0.041572
     33 H13         1.4830    3.9970    1.7850 hc        1 MOL      0.041572
     34 H14         0.7490    7.0110    2.3610 hc        1 MOL      0.014393
     35 H15         1.9360    5.9970    3.2280 hc        1 MOL      0.014393
     36 H16         0.3430    4.5450    4.0950 hx        1 MOL     -0.002602
     37 H17        -0.9650    5.2290    3.1060 hx        1 MOL     -0.002602
     38 H18        -0.4360    7.3310    4.3190 hn        1 MOL      0.329522
     39 H19        -0.7580    6.1010    5.3770 hn        1 MOL      0.329522
     40 H20         0.7900    6.5130    5.0140 hn        1 MOL      0.329522
     41 N4         -2.8480    3.8690   -1.1740 n         1 MOL     -0.169750
     42 C13        -3.6630    3.9960   -2.4250 c3        1 MOL     -0.037137
     43 C14        -4.9080    3.0700   -2.3290 c         1 MOL      0.467319
     44 O6         -5.4710    2.6010   -3.2720 o         1 MOL     -0.472123
     45 C15        -2.8330    3.6910   -3.6830 c3        1 MOL     -0.093617
     46 C16        -2.2530    2.3020   -3.7710 c         1 MOL      0.788259
     47 O7         -1.4850    2.0400   -4.7460 o         1 MOL     -0.733276
     48 O8         -2.5760    1.4930   -2.8940 o         1 MOL     -0.733276
     49 H21        -2.7580    2.9600   -0.7300 hn        1 MOL      0.165703
     50 H22        -4.0960    4.9820   -2.5870 h1        1 MOL      0.083755
     51 H23        -2.0020    4.3780   -3.8190 hc        1 MOL      0.027380
     52 H24        -3.4150    3.8000   -4.5910 hc        1 MOL      0.027380
     53 N5         -5.4250    3.0420   -1.0780 n         1 MOL     -0.266683
     54 C17        -6.8900    2.7720   -0.8030 c3        1 MOL     -0.132866
     55 C18        -7.4590    1.4160   -1.3310 c         1 MOL      0.510945
     56 O9         -8.6460    1.3470   -1.6410 o         1 MOL     -0.562381
     57 H25        -4.8160    3.5260   -0.4260 hn        1 MOL      0.175279
     58 H26        -7.4670    3.6090   -1.1910 h1        1 MOL      0.084255
     59 H27        -6.9990    2.8120    0.2880 h1        1 MOL      0.084255
     60 N6         -6.6500    0.3590   -1.3250 n         1 MOL     -0.256231
     61 C19        -7.0190   -0.8710   -2.0330 c3        1 MOL     -0.031766
     62 C20        -7.2480   -2.0190   -1.0330 c         1 MOL      0.435581
     63 O10        -7.9090   -2.9700   -1.3030 o         1 MOL     -0.552874
     64 C21        -6.0130   -1.2220   -3.2200 c3        1 MOL     -0.159995
     65 C22        -4.5990   -1.4350   -2.7610 c         1 MOL      0.773039
     66 O11        -4.3050   -1.5990   -1.5910 o         1 MOL     -0.723371
     67 O12        -3.6580   -1.4590   -3.5720 o         1 MOL     -0.723371
     68 H28        -5.7340    0.4310   -0.9240 hn        1 MOL      0.174799
     69 H29        -8.0520   -0.7840   -2.3890 h1        1 MOL      0.116596
     70 H30        -5.9790   -0.4350   -3.9700 hc        1 MOL      0.065028
     71 H31        -6.3690   -2.0520   -3.8320 hc        1 MOL      0.065028
     72 N7         -6.7760   -1.9420    0.2070 n         1 MOL     -0.113101
     73 C23        -6.8650   -2.8990    1.2880 c3        1 MOL     -0.228359
     74 C24        -5.7470   -3.8930    1.3560 c         1 MOL      0.555065
     75 O13        -5.9490   -5.0270    1.8310 o         1 MOL     -0.550917
     76 H32        -6.1430   -1.1800    0.4190 hn        1 MOL      0.141026
     77 H33        -7.8310   -3.3760    1.2030 h1        1 MOL      0.105320
     78 H34        -6.8500   -2.2890    2.1920 h1        1 MOL      0.105320
     79 N8         -4.5410   -3.5490    0.8040 n         1 MOL     -0.078048
     80 C25        -3.2490   -4.1930    1.0110 c3        1 MOL     -0.579907
     81 C26        -2.0360   -3.2670    1.1500 c         1 MOL      0.993579
     82 O14        -1.9690   -2.2490    0.4340 o         1 MOL     -0.696510
     83 C27        -2.9710   -5.1870   -0.1310 c3        1 MOL      0.431855
     84 C28        -3.9560   -6.3740   -0.1020 c3        1 MOL     -0.509102
     85 O15        -3.1740   -4.6760   -1.3990 oh        1 MOL     -0.576080
     86 H35        -4.4940   -2.6430    0.3560 hn        1 MOL      0.161350
     87 H36        -3.2910   -4.8300    1.8920 h1        1 MOL      0.154808
     88 H37        -1.9680   -5.6320   -0.0940 h1        1 MOL      0.050696
     89 H38        -4.0230   -4.2300   -1.4130 ho        1 MOL      0.386704
     90 H39        -4.9850   -6.0350   -0.2410 hc        1 MOL      0.136018
     91 H40        -3.7060   -7.0850   -0.8840 hc        1 MOL      0.136018
     92 H41        -3.9550   -6.9630    0.8190 hc        1 MOL      0.136018
     93 N9         -1.0160   -3.7520    1.8960 n         1 MOL     -0.845924
     94 C29         0.2390   -3.0630    2.0840 c3        1 MOL     -0.020082
     95 C30         1.3280   -3.5960    1.1820 c         1 MOL      0.787205
     96 O16         1.7510   -4.7180    1.4340 o         1 MOL     -0.635356
     97 C31         0.7800   -2.9860    3.5430 c3        1 MOL      0.220424
     98 C32        -0.3610   -3.2740    4.5820 c3        1 MOL      0.209527
     99 C33         1.6430   -1.7250    3.6680 c3        1 MOL     -0.330354
    100 C34        -0.0330   -3.2610    6.0270 c3        1 MOL     -0.352685
    101 H42        -1.0660   -4.6390    2.3860 hn        1 MOL      0.393000
    102 H43         0.1030   -2.0240    1.7710 h1        1 MOL      0.102216
    103 H44         1.5510   -3.7380    3.7330 hc        1 MOL     -0.030273
    104 H45        -0.6890   -4.2770    4.2900 hc        1 MOL     -0.029604
    105 H46        -1.1300   -2.5220    4.4020 hc        1 MOL     -0.029604
    106 H47         1.9810   -1.5400    4.6900 hc        1 MOL      0.078425
    107 H48         2.6090   -1.8520    3.1850 hc        1 MOL      0.078425
    108 H49         1.0890   -0.8160    3.4680 hc        1 MOL      0.078425
    109 H50         0.9550   -2.8000    6.0960 hc        1 MOL      0.076383
    110 H51        -0.8200   -2.7200    6.5620 hc        1 MOL      0.076383
    111 H52        -0.0530   -4.2830    6.4000 hc        1 MOL      0.076383
    112 N10         1.8170   -2.8750    0.2230 n         1 MOL     -0.578874
    113 C35         3.0360   -3.2900   -0.5730 c3        1 MOL     -0.003886
    114 C36         4.2640   -2.6150    0.0160 c         1 MOL      0.332958
    115 O17         4.1010   -1.7030    0.8510 o         1 MOL     -0.381917
    116 C37         2.9320   -3.0190   -2.1370 c3        1 MOL      0.390004
    117 C38         2.8430   -1.5490   -2.5600 c3        1 MOL     -0.161749
    118 O18         3.9500   -3.7350   -2.7770 oh        1 MOL     -0.682337
    119 H53         1.4740   -1.9420    0.0400 hn        1 MOL      0.353703
    120 H54         3.2360   -4.3620   -0.5650 h1        1 MOL      0.091636
    121 H55         1.9910   -3.4860   -2.4350 h1        1 MOL      0.013128
    122 H56         3.5140   -4.0680   -3.5720 ho        1 MOL      0.415722
    123 H57         3.5950   -0.8350   -2.2220 hc        1 MOL      0.020020
    124 H58         2.9050   -1.6090   -3.6490 hc        1 MOL      0.020020
    125 H59         1.8580   -1.2400   -2.2030 hc        1 MOL      0.020020
    126 N11         5.4540   -3.1180   -0.2420 n         1 MOL     -0.125242
    127 C39         6.7370   -2.7290    0.4460 c3        1 MOL     -0.210769
    128 C40         7.0030   -1.2310    0.3430 c         1 MOL      0.279319
    129 O19         7.5240   -0.5970    1.2600 o         1 MOL     -0.442669
    130 C41         7.8600   -3.5870   -0.1540 c3        1 MOL      0.555288
    131 C42         9.0660   -3.5860    0.7640 c3        1 MOL     -0.452095
    132 O20         7.5670   -4.9530   -0.3280 oh        1 MOL     -0.634328
    133 H60         5.5680   -3.8590   -0.9270 hn        1 MOL      0.184091
    134 H61         6.6280   -3.0560    1.4780 h1        1 MOL      0.161421
    135 H62         8.2240   -3.2390   -1.1290 h1        1 MOL     -0.069333
    136 H63         8.2160   -5.3590   -0.9150 ho        1 MOL      0.402755
    137 H64         9.4550   -2.5660    0.8230 hc        1 MOL      0.114645
    138 H65         8.8910   -4.0080    1.7550 hc        1 MOL      0.114645
    139 H66         9.8780   -4.2380    0.4340 hc        1 MOL      0.114645
    140 N12         6.7970   -0.6090   -0.8460 n         1 MOL     -0.089493
    141 C43         7.0210    0.8020   -1.1720 c3        1 MOL     -0.312031
    142 C44         6.1450    1.7280   -0.3080 c         1 MOL      0.471436
    143 O21         6.4820    2.8880   -0.0960 o         1 MOL     -0.525129
    144 C45         6.8310    0.9220   -2.6670 c3        1 MOL     -0.060496
    145 C46         7.3670    2.2790   -3.1750 c3        1 MOL     -0.111785
    146 C47         7.3270    2.4920   -4.7020 c3        1 MOL     -0.019996
    147 C48         7.9540    1.2860   -5.4200 c3        1 MOL      0.001831
    148 N13         9.3710    1.4440   -5.6470 n4        1 MOL     -0.364472
    149 H67         6.4380   -1.2130   -1.5680 hn        1 MOL      0.105364
    150 H68         8.0290    1.0900   -0.8850 h1        1 MOL      0.163827
    151 H69         5.7630    0.8960   -2.8860 hc        1 MOL      0.073239
    152 H70         7.3810    0.0730   -3.0680 hc        1 MOL      0.073239
    153 H71         8.4440    2.3270   -3.0210 hc        1 MOL      0.060411
    154 H72         6.7440    3.0610   -2.7430 hc        1 MOL      0.060411
    155 H73         7.8270    3.3790   -5.0910 hc        1 MOL      0.071127
    156 H74         6.2960    2.5380   -5.0470 hc        1 MOL      0.071127
    157 H75         7.2990    1.1540   -6.2790 hx        1 MOL      0.082021
    158 H76         7.8440    0.3550   -4.8720 hx        1 MOL      0.082021
    159 H77         9.8100    1.4580   -4.7370 hn        1 MOL      0.304158
    160 H78         9.6900    0.6090   -6.1120 hn        1 MOL      0.304158
    161 H79         9.6640    2.2200   -6.2260 hn        1 MOL      0.304158
    162 N14         4.9630    1.2490    0.1080 n         1 MOL     -0.023855
    163 C49         3.9400    2.1250    0.8570 c3        1 MOL     -0.278442
    164 C50         4.3550    2.1760    2.3400 c         1 MOL      0.553726
    165 O22         4.5000    3.2380    2.9040 o         1 MOL     -0.534569
    166 C51         2.5900    1.3950    0.7980 c3        1 MOL      0.121519
    167 C52         1.9890    1.4770   -0.6000 c3        1 MOL      0.051960
    168 C53         0.5940    0.8490   -0.5890 c         1 MOL      0.634153
    169 O23         0.4080   -0.3300   -0.2910 o         1 MOL     -0.714129
    170 O24        -0.3700    1.5420   -0.9540 o         1 MOL     -0.714129
    171 H80         4.7380    0.3180   -0.2130 hn        1 MOL      0.229334
    172 H81         3.9120    3.1670    0.5580 h1        1 MOL      0.121700
    173 H82         1.8760    1.7840    1.5260 hc        1 MOL     -0.046115
    174 H83         2.7790    0.3660    1.1180 hc        1 MOL     -0.046115
    175 H84         2.7490    1.1170   -1.2890 hc        1 MOL     -0.019224
    176 H85         1.9330    2.5430   -0.8310 hc        1 MOL     -0.019224
    177 N15         4.6750    1.0260    2.9390 n         1 MOL     -0.301299
    178 C54         5.4100    0.7490    4.2070 c3        1 MOL     -0.113986
    179 H86         6.1310   -0.0520    4.0400 h1        1 MOL      0.076824
    180 H87         5.9360    1.6480    4.5270 h1        1 MOL      0.076824
    181 H88         4.7020    0.4470    4.9780 h1        1 MOL      0.076824
    182 H89         4.4910    0.1900    2.4080 hn        1 MOL      0.211824
    183 Ca1        -1.9790   -0.4800   -1.5090 Ca        1 MOL      1.762587
    184 O25        -1.3740   -3.0460   -2.3670 oh        1 MOL     -0.846722
    185 H90        -1.6180   -3.3780   -3.2330 ho        1 MOL      0.395552
    186 H91        -1.9810   -3.4700   -1.7720 ho        1 MOL      0.395552
    187 O26        -0.4650   -0.1850   -3.8020 oh        1 MOL     -0.846722
    188 H92        -0.7300    0.5860   -4.2990 ho        1 MOL      0.395552
    189 H93        -0.2280   -0.8290   -4.4600 ho        1 MOL      0.395552
@<TRIPOS>BOND
     1    1    2 1   
     2    1    4 1   
     3    1    5 1   
     4    1    6 1   
     5    2    3 2   
     6    2    7 1   
     7    7    8 1   
     8    7   15 1   
     9    8    9 1   
    10    8   11 1   
    11    8   16 1   
    12    9   10 2   
    13    9   19 1   
    14   11   12 1   
    15   11   17 1   
    16   11   18 1   
    17   12   13 1   
    18   12   14 1   
    19   19   20 1   
    20   19   28 1   
    21   20   21 1   
    22   20   23 1   
    23   20   29 1   
    24   21   22 2   
    25   21   41 1   
    26   23   24 1   
    27   23   30 1   
    28   23   31 1   
    29   24   25 1   
    30   24   32 1   
    31   24   33 1   
    32   25   26 1   
    33   25   34 1   
    34   25   35 1   
    35   26   27 1   
    36   26   36 1   
    37   26   37 1   
    38   27   38 1   
    39   27   39 1   
    40   27   40 1   
    41   41   42 1   
    42   41   49 1   
    43   42   43 1   
    44   42   45 1   
    45   42   50 1   
    46   43   44 2   
    47   43   53 1   
    48   45   46 1   
    49   45   51 1   
    50   45   52 1   
    51   46   47 1   
    52   46   48 1   
    53   53   54 1   
    54   53   57 1   
    55   54   55 1   
    56   54   58 1   
    57   54   59 1   
    58   55   56 2   
    59   55   60 1   
    60   60   61 1   
    61   60   68 1   
    62   61   62 1   
    63   61   64 1   
    64   61   69 1   
    65   62   63 2   
    66   62   72 1   
    67   64   65 1   
    68   64   70 1   
    69   64   71 1   
    70   65   66 1   
    71   65   67 1   
    72   72   73 1   
    73   72   76 1   
    74   73   74 1   
    75   73   77 1   
    76   73   78 1   
    77   74   75 2   
    78   74   79 1   
    79   79   80 1   
    80   79   86 1   
    81   80   81 1   
    82   80   83 1   
    83   80   87 1   
    84   81   82 2   
    85   81   93 1   
    86   83   84 1   
    87   83   85 1   
    88   83   88 1   
    89   84   90 1   
    90   84   91 1   
    91   84   92 1   
    92   85   89 1   
    93   93   94 1   
    94   93  101 1   
    95   94   95 1   
    96   94   97 1   
    97   94  102 1   
    98   95   96 2   
    99   95  112 1   
   100   97   98 1   
   101   97   99 1   
   102   97  103 1   
   103   98  100 1   
   104   98  104 1   
   105   98  105 1   
   106   99  106 1   
   107   99  107 1   
   108   99  108 1   
   109  100  109 1   
   110  100  110 1   
   111  100  111 1   
   112  112  113 1   
   113  112  119 1   
   114  113  114 1   
   115  113  116 1   
   116  113  120 1   
   117  114  115 2   
   118  114  126 1   
   119  116  117 1   
   120  116  118 1   
   121  116  121 1   
   122  117  123 1   
   123  117  124 1   
   124  117  125 1   
   125  118  122 1   
   126  126  127 1   
   127  126  133 1   
   128  127  128 1   
   129  127  130 1   
   130  127  134 1   
   131  128  129 2   
   132  128  140 1   
   133  130  131 1   
   134  130  132 1   
   135  130  135 1   
   136  131  137 1   
   137  131  138 1   
   138  131  139 1   
   139  132  136 1   
   140  140  141 1   
   141  140  149 1   
   142  141  142 1   
   143  141  144 1   
   144  141  150 1   
   145  142  143 2   
   146  142  162 1   
   147  144  145 1   
   148  144  151 1   
   149  144  152 1   
   150  145  146 1   
   151  145  153 1   
   152  145  154 1   
   153  146  147 1   
   154  146  155 1   
   155  146  156 1   
   156  147  148 1   
   157  147  157 1   
   158  147  158 1   
   159  148  159 1   
   160  148  160 1   
   161  148  161 1   
   162  162  163 1   
   163  162  171 1   
   164  163  164 1   
   165  163  166 1   
   166  163  172 1   
   167  164  165 2   
   168  164  177 1   
   169  166  167 1   
   170  166  173 1   
   171  166  174 1   
   172  167  168 1   
   173  167  175 1   
   174  167  176 1   
   175  168  169 1   
   176  168  170 1   
   177  177  178 1   
   178  177  182 1   
   179  178  179 1   
   180  178  180 1   
   181  178  181 1   
   182  184  185 1   
   183  184  186 1   
   184  187  188 1   
   185  187  189 1   
@<TRIPOS>SUBSTRUCTURE
     1 MOL         1 TEMP              0 ****  ****    0 ROOT
