@<TRIPOS>MOLECULE
MOL
  189   185     1     0     0
SMALL
resp


@<TRIPOS>ATOM
      1 C1         -0.4600    3.6250   -4.9070 c3        1 MOL     -0.383875
      2 C2          0.1970    3.2650   -3.5400 c         1 MOL      0.835149
      3 O1         -0.3930    3.4600   -2.4950 o         1 MOL     -0.701261
      4 H1         -1.4730    3.9900   -4.7370 hc        1 MOL      0.098041
      5 H2          0.1270    4.3990   -5.4010 hc        1 MOL      0.098041
      6 H3         -0.4970    2.7370   -5.5380 hc        1 MOL      0.098041
      7 N1          1.3710    2.6220   -3.4740 n         1 MOL     -0.776749
      8 C3          2.0270    2.1500   -2.2640 c3        1 MOL      0.388126
      9 C4          2.6680    3.3090   -1.5150 c         1 MOL      0.439003
     10 O2          3.6730    3.8400   -1.9610 o         1 MOL     -0.584052
     11 C5          3.1470    1.1950   -2.6220 c3        1 MOL     -0.250887
     12 C6          3.6930    0.3980   -1.4170 c         1 MOL      0.750083
     13 O3          3.2040    0.6010   -0.2870 o         1 MOL     -0.662159
     14 O4          4.6330   -0.3980   -1.6300 o         1 MOL     -0.662159
     15 H4          1.6910    2.3100   -4.3800 hn        1 MOL      0.328436
     16 H5          1.3680    1.6400   -1.5690 h1        1 MOL     -0.024366
     17 H6          4.0050    1.6560   -3.1260 hc        1 MOL      0.060864
     18 H7          2.7580    0.4390   -3.3030 hc        1 MOL      0.060864
     19 N2          2.1250    3.6800   -0.3380 n         1 MOL     -0.014986
     20 C7          2.5550    4.9250    0.3950 c3        1 MOL      0.073365
     21 C8          3.5960    4.6810    1.4890 c         1 MOL      0.569758
     22 O5          4.0380    5.6050    2.1830 o         1 MOL     -0.585063
     23 C9          1.4040    5.6580    0.9670 c3        1 MOL     -0.143019
     24 C10         0.3660    6.1050   -0.1410 c3        1 MOL      0.301062
     25 C11         0.8940    6.8270   -1.3280 c3        1 MOL     -0.145809
     26 C12        -0.2270    7.8640   -1.7590 c3        1 MOL      0.033986
     27 N3         -1.4060    7.2910   -2.6480 n4        1 MOL     -0.371031
     28 H8          1.3360    3.1420   -0.0210 hn        1 MOL      0.180804
     29 H9          3.1140    5.5730   -0.2850 h1        1 MOL      0.013721
     30 H10         1.7980    6.5480    1.4490 hc        1 MOL      0.021382
     31 H11         0.8350    5.0200    1.6440 hc        1 MOL      0.021382
     32 H12        -0.4510    6.7000    0.2800 hc        1 MOL     -0.063357
     33 H13        -0.1380    5.1940   -0.4840 hc        1 MOL     -0.063357
     34 H14         1.0730    6.0740   -2.0990 hc        1 MOL      0.064328
     35 H15         1.7850    7.4070   -1.0930 hc        1 MOL      0.064328
     36 H16         0.2490    8.6470   -2.3500 hx        1 MOL      0.080174
     37 H17        -0.6180    8.4170   -0.9150 hx        1 MOL      0.080174
     38 H18        -1.8460    6.5370   -2.1410 hn        1 MOL      0.323171
     39 H19        -2.2230    7.8760   -2.7540 hn        1 MOL      0.323171
     40 H20        -1.1460    7.0590   -3.5940 hn        1 MOL      0.323171
     41 N4          3.9310    3.4460    1.7350 n         1 MOL     -0.525389
     42 C13         4.6710    3.0980    2.9470 c3        1 MOL      0.388075
     43 C14         5.9770    2.2910    2.5820 c         1 MOL      0.345963
     44 O6          6.9690    2.1920    3.3110 o         1 MOL     -0.511615
     45 C15         3.9120    2.2950    4.0340 c3        1 MOL     -0.349647
     46 C16         2.9350    1.3070    3.4100 c         1 MOL      0.945189
     47 O7          3.4020    0.5820    2.5400 o         1 MOL     -0.782970
     48 O8          1.7850    1.1820    3.8330 o         1 MOL     -0.782970
     49 H21         3.6520    2.7580    1.0470 hn        1 MOL      0.109837
     50 H22         5.1410    3.9370    3.4550 h1        1 MOL      0.030966
     51 H23         3.3560    3.1030    4.5110 hc        1 MOL      0.058864
     52 H24         4.5720    1.8640    4.7810 hc        1 MOL      0.058864
     53 N5          6.0020    1.7980    1.3250 n         1 MOL     -0.235893
     54 C17         7.1660    1.1490    0.7370 c3        1 MOL     -0.206821
     55 C18         7.5590   -0.2470    1.2290 c         1 MOL      0.591709
     56 O9          8.6840   -0.6270    1.1030 o         1 MOL     -0.550651
     57 H25         5.1660    1.7110    0.7550 hn        1 MOL      0.253277
     58 H26         8.0510    1.7790    0.7870 h1        1 MOL      0.095501
     59 H27         6.9820    0.9990   -0.3260 h1        1 MOL      0.095501
     60 N6          6.5420   -0.9640    1.7500 n         1 MOL     -0.373246
     61 C19         6.6770   -2.4830    1.7640 c3        1 MOL     -0.028011
     62 C20         6.8660   -3.1960    0.3700 c         1 MOL      0.425389
     63 O10         7.3760   -4.3240    0.2920 o         1 MOL     -0.533099
     64 C21         5.4850   -3.0890    2.5560 c3        1 MOL     -0.190417
     65 C22         4.0980   -2.6330    2.1960 c         1 MOL      0.741184
     66 O11         3.7390   -2.4960    0.9840 o         1 MOL     -0.752660
     67 O12         3.2310   -2.2940    3.0490 o         1 MOL     -0.752660
     68 H28         5.6770   -0.4780    1.9000 hn        1 MOL      0.292605
     69 H29         7.5700   -2.7500    2.3470 h1        1 MOL      0.110942
     70 H30         5.6750   -2.9710    3.6220 hc        1 MOL      0.065581
     71 H31         5.4630   -4.1630    2.3350 hc        1 MOL      0.065581
     72 N7          6.5050   -2.5650   -0.7390 n         1 MOL     -0.259139
     73 C23         6.4190   -3.3000   -2.0170 c3        1 MOL     -0.029375
     74 C24         5.0540   -3.7290   -2.4770 c         1 MOL      0.552885
     75 O13         4.9660   -4.4300   -3.4540 o         1 MOL     -0.577906
     76 H32         6.0790   -1.6470   -0.6720 hn        1 MOL      0.241995
     77 H33         7.1140   -4.1260   -2.1350 h1        1 MOL      0.070351
     78 H34         6.7150   -2.5720   -2.7780 h1        1 MOL      0.070351
     79 N8          3.9750   -3.1730   -1.8340 n         1 MOL     -0.108835
     80 C25         2.6320   -3.7970   -1.9530 c3        1 MOL     -0.345172
     81 C26         1.4290   -2.8320   -1.7440 c         1 MOL      0.944057
     82 O14         1.4470   -1.8740   -0.9820 o         1 MOL     -0.731603
     83 C27         2.4700   -5.0030   -0.9970 c3        1 MOL      0.558931
     84 C28         2.8900   -6.3440   -1.6560 c3        1 MOL     -0.515054
     85 O15         3.1650   -4.8000    0.2360 oh        1 MOL     -0.688102
     86 H35         4.0890   -2.3200   -1.3110 hn        1 MOL      0.008938
     87 H36         2.4880   -4.3160   -2.8940 h1        1 MOL      0.085598
     88 H37         1.4080   -4.9720   -0.7590 h1        1 MOL     -0.085208
     89 H38         3.4100   -3.8820    0.3250 ho        1 MOL      0.494388
     90 H39         2.9980   -7.0760   -0.8570 hc        1 MOL      0.133662
     91 H40         2.2030   -6.6940   -2.4300 hc        1 MOL      0.133662
     92 H41         3.9160   -6.1700   -1.9880 hc        1 MOL      0.133662
     93 N9          0.2830   -3.1450   -2.3630 n         1 MOL     -0.843510
     94 C29        -0.8920   -2.2810   -2.4370 c3        1 MOL      0.193637
     95 C30        -2.0510   -2.9530   -1.7110 c         1 MOL      0.639735
     96 O16        -2.6290   -3.9030   -2.2660 o         1 MOL     -0.561814
     97 C31        -1.2270   -1.9630   -3.9850 c3        1 MOL      0.038433
     98 C32        -0.0590   -1.1090   -4.6430 c3        1 MOL      0.225949
     99 C33        -2.6040   -1.1720   -4.0830 c3        1 MOL     -0.284386
    100 C34        -0.1850   -1.2330   -6.1880 c3        1 MOL     -0.208776
    101 H42         0.3010   -3.9780   -2.9290 hn        1 MOL      0.368100
    102 H43        -0.6070   -1.3450   -1.9580 h1        1 MOL      0.054311
    103 H44        -1.2750   -2.9910   -4.3380 hc        1 MOL      0.023304
    104 H45         0.8870   -1.5700   -4.3730 hc        1 MOL     -0.041547
    105 H46         0.0830   -0.1140   -4.2200 hc        1 MOL     -0.041547
    106 H47        -2.8320   -0.8750   -5.1110 hc        1 MOL      0.045904
    107 H48        -3.3800   -1.6770   -3.5110 hc        1 MOL      0.045904
    108 H49        -2.4530   -0.2150   -3.5840 hc        1 MOL      0.045904
    109 H50        -0.3570   -2.2540   -6.5340 hc        1 MOL      0.045134
    110 H51        -0.9000   -0.5370   -6.6100 hc        1 MOL      0.045134
    111 H52         0.7970   -0.9080   -6.5350 hc        1 MOL      0.045134
    112 N10        -2.4150   -2.3880   -0.5240 n         1 MOL     -0.388624
    113 C35        -3.6460   -2.7350    0.2030 c3        1 MOL     -0.064359
    114 C36        -4.9480   -2.3040   -0.5230 c         1 MOL      0.290545
    115 O17        -4.8720   -1.2990   -1.2890 o         1 MOL     -0.318935
    116 C37        -3.6930   -2.2620    1.6370 c3        1 MOL      0.238960
    117 C38        -2.7130   -2.9360    2.5740 c3        1 MOL     -0.512803
    118 O18        -3.4970   -0.9130    1.7180 oh        1 MOL     -0.465561
    119 H53        -1.8430   -1.6110   -0.2230 hn        1 MOL      0.291203
    120 H54        -3.6600   -3.8260    0.2480 h1        1 MOL      0.070895
    121 H55        -4.6760   -2.4630    2.0840 h1        1 MOL      0.000770
    122 H56        -2.6020   -0.6000    1.5790 ho        1 MOL      0.353304
    123 H57        -2.6880   -4.0230    2.4350 hc        1 MOL      0.142588
    124 H58        -1.7200   -2.5410    2.4120 hc        1 MOL      0.142588
    125 H59        -3.0520   -2.7360    3.5910 hc        1 MOL      0.142588
    126 N11        -6.0550   -2.8780   -0.2130 n         1 MOL     -0.180032
    127 C39        -7.4140   -2.3770   -0.5360 c3        1 MOL     -0.269229
    128 C40        -7.5630   -0.9000   -0.2000 c         1 MOL      0.399675
    129 O19        -8.0490   -0.1560   -1.0200 o         1 MOL     -0.469362
    130 C41        -8.5490   -3.0100    0.3240 c3        1 MOL      0.272363
    131 C42        -8.8250   -4.4940   -0.0890 c3        1 MOL     -0.358469
    132 O20        -8.1830   -2.9890    1.6940 oh        1 MOL     -0.664910
    133 H60        -6.0270   -3.6890    0.3890 hn        1 MOL      0.231565
    134 H61        -7.5120   -2.6330   -1.5940 h1        1 MOL      0.184590
    135 H62        -9.4950   -2.5100    0.1220 h1        1 MOL      0.082441
    136 H63        -8.4590   -3.8670    1.9570 ho        1 MOL      0.430855
    137 H64        -7.8450   -4.9600    0.0170 hc        1 MOL      0.105548
    138 H65        -9.4690   -5.0010    0.6370 hc        1 MOL      0.105548
    139 H66        -9.1840   -4.5590   -1.1190 hc        1 MOL      0.105548
    140 N12        -6.9980   -0.5210    0.9380 n         1 MOL     -0.139915
    141 C43        -6.9100    0.9030    1.4670 c3        1 MOL     -0.154080
    142 C44        -6.1070    1.7880    0.5270 c         1 MOL      0.329390
    143 O21        -6.5800    2.8200    0.0350 o         1 MOL     -0.496590
    144 C45        -6.3310    1.0580    2.9050 c3        1 MOL     -0.083496
    145 C46        -7.3330    0.6410    4.0010 c3        1 MOL      0.242584
    146 C47        -6.8560    0.8040    5.4520 c3        1 MOL     -0.185600
    147 C48        -5.8110   -0.2150    5.8810 c3        1 MOL      0.255722
    148 N13        -5.2100    0.0380    7.2190 n4        1 MOL     -0.477218
    149 H67        -6.4660   -1.2360    1.4300 hn        1 MOL      0.253796
    150 H68        -7.8950    1.3630    1.4580 h1        1 MOL      0.129560
    151 H69        -6.1700    2.1190    3.1160 hc        1 MOL      0.031275
    152 H70        -5.3700    0.5370    2.9460 hc        1 MOL      0.031275
    153 H71        -7.6470   -0.3780    3.7750 hc        1 MOL     -0.024492
    154 H72        -8.2390    1.2410    3.9240 hc        1 MOL     -0.024492
    155 H73        -7.7290    0.6430    6.0710 hc        1 MOL      0.057916
    156 H74        -6.3680    1.7720    5.5590 hc        1 MOL      0.057916
    157 H75        -4.9980   -0.1980    5.1530 hx        1 MOL      0.008233
    158 H76        -6.2950   -1.1940    5.8600 hx        1 MOL      0.008233
    159 H77        -5.8540    0.1930    7.9810 hn        1 MOL      0.354380
    160 H78        -4.5500   -0.6950    7.4040 hn        1 MOL      0.354380
    161 H79        -4.6740    0.8920    7.1420 hn        1 MOL      0.354380
    162 N14        -4.9030    1.3860    0.1360 n         1 MOL     -0.068220
    163 C49        -4.0270    2.2020   -0.7600 c3        1 MOL     -0.175352
    164 C50        -4.6880    2.3150   -2.1960 c         1 MOL      0.514902
    165 O22        -4.5260    3.3410   -2.7800 o         1 MOL     -0.578763
    166 C51        -2.6850    1.4450   -0.9870 c3        1 MOL      0.143836
    167 C52        -1.8090    1.8180    0.0960 c3        1 MOL     -0.037616
    168 C53        -0.6740    0.9170    0.4100 c         1 MOL      0.824232
    169 O23         0.4740    1.4330    0.5980 o         1 MOL     -0.771295
    170 O24        -0.9180   -0.2700    0.6150 o         1 MOL     -0.771295
    171 H80        -4.5680    0.5350    0.5730 hn        1 MOL      0.111858
    172 H81        -3.9440    3.2340   -0.4010 h1        1 MOL      0.106612
    173 H82        -2.1670    1.7700   -1.8910 hc        1 MOL     -0.009423
    174 H83        -2.9290    0.3810   -1.0100 hc        1 MOL     -0.009423
    175 H84        -2.4120    1.7020    1.0110 hc        1 MOL     -0.036073
    176 H85        -1.4360    2.8440    0.0850 hc        1 MOL     -0.036073
    177 N15        -5.3190    1.2590   -2.7860 n         1 MOL     -0.057684
    178 C54        -6.0160    1.4270   -4.0470 c3        1 MOL     -0.374250
    179 H86        -6.9030    2.0400   -3.8910 h1        1 MOL      0.126012
    180 H87        -5.3570    1.9170   -4.7640 h1        1 MOL      0.126012
    181 H88        -6.3120    0.4510   -4.4320 h1        1 MOL      0.126012
    182 H89        -5.4590    0.4130   -2.2580 hn        1 MOL      0.151855
    183 Ca1         1.7420   -0.7960    1.2710 Ca        1 MOL      1.807034
    184 O25         0.9000   -3.4940    1.6960 oh        1 MOL     -0.824039
    185 H90         0.4710   -3.5860    2.5510 ho        1 MOL      0.383042
    186 H91         1.5020   -4.2460    1.6530 ho        1 MOL      0.383042
    187 O26         0.1300   -0.7580    3.4670 oh        1 MOL     -0.824039
    188 H92         0.6830   -0.0950    3.8780 ho        1 MOL      0.383042
    189 H93        -0.5030   -0.9960    4.1490 ho        1 MOL      0.383042
@<TRIPOS>BOND
     1    1    2 1   
     2    1    4 1   
     3    1    5 1   
     4    1    6 1   
     5    2    3 2   
     6    2    7 1   
     7    7    8 1   
     8    7   15 1   
     9    8    9 1   
    10    8   11 1   
    11    8   16 1   
    12    9   10 2   
    13    9   19 1   
    14   11   12 1   
    15   11   17 1   
    16   11   18 1   
    17   12   13 1   
    18   12   14 1   
    19   19   20 1   
    20   19   28 1   
    21   20   21 1   
    22   20   23 1   
    23   20   29 1   
    24   21   22 2   
    25   21   41 1   
    26   23   24 1   
    27   23   30 1   
    28   23   31 1   
    29   24   25 1   
    30   24   32 1   
    31   24   33 1   
    32   25   26 1   
    33   25   34 1   
    34   25   35 1   
    35   26   27 1   
    36   26   36 1   
    37   26   37 1   
    38   27   38 1   
    39   27   39 1   
    40   27   40 1   
    41   41   42 1   
    42   41   49 1   
    43   42   43 1   
    44   42   45 1   
    45   42   50 1   
    46   43   44 2   
    47   43   53 1   
    48   45   46 1   
    49   45   51 1   
    50   45   52 1   
    51   46   47 1   
    52   46   48 1   
    53   53   54 1   
    54   53   57 1   
    55   54   55 1   
    56   54   58 1   
    57   54   59 1   
    58   55   56 2   
    59   55   60 1   
    60   60   61 1   
    61   60   68 1   
    62   61   62 1   
    63   61   64 1   
    64   61   69 1   
    65   62   63 2   
    66   62   72 1   
    67   64   65 1   
    68   64   70 1   
    69   64   71 1   
    70   65   66 1   
    71   65   67 1   
    72   72   73 1   
    73   72   76 1   
    74   73   74 1   
    75   73   77 1   
    76   73   78 1   
    77   74   75 2   
    78   74   79 1   
    79   79   80 1   
    80   79   86 1   
    81   80   81 1   
    82   80   83 1   
    83   80   87 1   
    84   81   82 2   
    85   81   93 1   
    86   83   84 1   
    87   83   85 1   
    88   83   88 1   
    89   84   90 1   
    90   84   91 1   
    91   84   92 1   
    92   85   89 1   
    93   93   94 1   
    94   93  101 1   
    95   94   95 1   
    96   94   97 1   
    97   94  102 1   
    98   95   96 2   
    99   95  112 1   
   100   97   98 1   
   101   97   99 1   
   102   97  103 1   
   103   98  100 1   
   104   98  104 1   
   105   98  105 1   
   106   99  106 1   
   107   99  107 1   
   108   99  108 1   
   109  100  109 1   
   110  100  110 1   
   111  100  111 1   
   112  112  113 1   
   113  112  119 1   
   114  113  114 1   
   115  113  116 1   
   116  113  120 1   
   117  114  115 2   
   118  114  126 1   
   119  116  117 1   
   120  116  118 1   
   121  116  121 1   
   122  117  123 1   
   123  117  124 1   
   124  117  125 1   
   125  118  122 1   
   126  126  127 1   
   127  126  133 1   
   128  127  128 1   
   129  127  130 1   
   130  127  134 1   
   131  128  129 2   
   132  128  140 1   
   133  130  131 1   
   134  130  132 1   
   135  130  135 1   
   136  131  137 1   
   137  131  138 1   
   138  131  139 1   
   139  132  136 1   
   140  140  141 1   
   141  140  149 1   
   142  141  142 1   
   143  141  144 1   
   144  141  150 1   
   145  142  143 2   
   146  142  162 1   
   147  144  145 1   
   148  144  151 1   
   149  144  152 1   
   150  145  146 1   
   151  145  153 1   
   152  145  154 1   
   153  146  147 1   
   154  146  155 1   
   155  146  156 1   
   156  147  148 1   
   157  147  157 1   
   158  147  158 1   
   159  148  159 1   
   160  148  160 1   
   161  148  161 1   
   162  162  163 1   
   163  162  171 1   
   164  163  164 1   
   165  163  166 1   
   166  163  172 1   
   167  164  165 2   
   168  164  177 1   
   169  166  167 1   
   170  166  173 1   
   171  166  174 1   
   172  167  168 1   
   173  167  175 1   
   174  167  176 1   
   175  168  169 1   
   176  168  170 1   
   177  177  178 1   
   178  177  182 1   
   179  178  179 1   
   180  178  180 1   
   181  178  181 1   
   182  184  185 1   
   183  184  186 1   
   184  187  188 1   
   185  187  189 1   
@<TRIPOS>SUBSTRUCTURE
     1 MOL         1 TEMP              0 ****  ****    0 ROOT
