@<TRIPOS>MOLECULE
MOL
  186   183     1     0     0
SMALL
resp


@<TRIPOS>ATOM
      1 C1         -0.3950   -1.6510   -6.4030 c3        1 MOL     -0.272678
      2 C2         -0.9020   -1.8610   -4.9300 c         1 MOL      0.718943
      3 O1         -0.1000   -2.4110   -4.1020 o         1 MOL     -0.589893
      4 H1          0.6920   -1.5700   -6.4040 hc        1 MOL      0.062485
      5 H2         -0.6950   -2.5010   -7.0160 hc        1 MOL      0.062485
      6 H3         -0.8280   -0.7380   -6.8100 hc        1 MOL      0.062485
      7 N1         -2.0720   -1.4040   -4.5780 n         1 MOL     -0.620846
      8 C3         -2.6530   -1.5920   -3.2830 c3        1 MOL      0.288851
      9 C4         -2.9820   -3.0610   -2.8310 c         1 MOL      0.423661
     10 O2         -3.6150   -3.8290   -3.5470 o         1 MOL     -0.591644
     11 C5         -3.9880   -0.7580   -3.2100 c3        1 MOL     -0.209447
     12 C6         -4.4930   -0.5810   -1.7730 c         1 MOL      0.883515
     13 O3         -5.5170    0.1010   -1.6290 o         1 MOL     -0.742284
     14 O4         -3.8710   -0.9570   -0.8370 o         1 MOL     -0.742284
     15 H4         -2.6770   -0.9470   -5.2580 hn        1 MOL      0.318747
     16 H5         -2.0940   -1.1130   -2.4770 h1        1 MOL     -0.004425
     17 H6         -4.7650   -1.1630   -3.8520 hc        1 MOL      0.021180
     18 H7         -3.8070    0.2600   -3.5620 hc        1 MOL      0.021180
     19 N2         -2.4700   -3.4990   -1.6650 n         1 MOL      0.003952
     20 C7         -2.6130   -4.8580   -1.2040 c3        1 MOL      0.056833
     21 C8         -3.7340   -5.1170   -0.1760 c         1 MOL      0.359570
     22 O5         -4.5480   -5.9970   -0.3830 o         1 MOL     -0.533446
     23 C9         -1.1710   -5.3580   -0.6200 c3        1 MOL      0.347078
     24 C10         0.0260   -5.3010   -1.5630 c3        1 MOL      0.053063
     25 C11        -1.2470   -6.7440    0.0720 c3        1 MOL     -0.426252
     26 C12        -0.2910   -6.0700   -2.8580 c3        1 MOL     -0.213256
     27 H8         -1.9980   -2.8790   -1.0270 hn        1 MOL      0.030012
     28 H9         -2.8740   -5.6100   -1.9640 h1        1 MOL      0.027319
     29 H10        -0.8710   -4.6540    0.1570 hc        1 MOL     -0.063255
     30 H11         0.9320   -5.7390   -1.1280 hc        1 MOL      0.021306
     31 H12         0.1580   -4.2480   -1.7980 hc        1 MOL      0.021306
     32 H13        -1.5510   -7.4770   -0.6830 hc        1 MOL      0.081139
     33 H14        -0.2710   -6.9360    0.5100 hc        1 MOL      0.081139
     34 H15        -2.0660   -6.7260    0.7890 hc        1 MOL      0.081139
     35 H16         0.5930   -6.3180   -3.4450 hc        1 MOL      0.023248
     36 H17        -0.8470   -6.9710   -2.5850 hc        1 MOL      0.023248
     37 H18        -0.9550   -5.4240   -3.4230 hc        1 MOL      0.023248
     38 N3         -3.7890   -4.3240    0.9460 n         1 MOL     -0.240343
     39 C13        -4.7510   -4.4930    2.0200 c3        1 MOL     -0.000069
     40 C14        -6.0510   -3.7640    1.7120 c         1 MOL      0.477311
     41 O6         -7.0590   -4.1160    2.3250 o         1 MOL     -0.573650
     42 C15        -4.0620   -3.9620    3.3580 c3        1 MOL     -0.309669
     43 C16        -3.3230   -2.5960    3.2690 c         1 MOL      0.749705
     44 O7         -3.6420   -1.6640    2.4930 o         1 MOL     -0.690088
     45 O8         -2.2940   -2.5160    4.0390 o         1 MOL     -0.690088
     46 H19        -3.2270   -3.4940    1.0400 hn        1 MOL      0.203188
     47 H20        -5.0840   -5.5220    2.0810 h1        1 MOL      0.082533
     48 H21        -3.3380   -4.7240    3.6300 hc        1 MOL      0.086040
     49 H22        -4.9590   -3.8820    3.9680 hc        1 MOL      0.086040
     50 N4         -6.0750   -2.8890    0.7460 n         1 MOL     -0.011068
     51 C17        -7.3170   -2.2250    0.2950 c3        1 MOL     -0.324540
     52 C18        -7.7980   -1.0120    1.0910 c         1 MOL      0.735804
     53 O9         -8.7870   -1.0880    1.8040 o         1 MOL     -0.600411
     54 H23        -5.2200   -2.6770    0.2510 hn        1 MOL      0.085954
     55 H24        -8.1570   -2.9030    0.4720 h1        1 MOL      0.099970
     56 H25        -7.2430   -1.9690   -0.7630 h1        1 MOL      0.099970
     57 N5         -7.1110    0.0820    0.9710 n         1 MOL     -0.483981
     58 C19        -7.4510    1.3750    1.6040 c3        1 MOL      0.162448
     59 C20        -7.3280    2.5410    0.6310 c         1 MOL      0.436806
     60 O10        -7.6000    3.6850    1.0330 o         1 MOL     -0.568763
     61 C21        -6.5210    1.6750    2.7850 c3        1 MOL     -0.266548
     62 C22        -5.0370    1.7400    2.4560 c         1 MOL      0.799674
     63 O11        -4.2670    1.7360    3.4640 o         1 MOL     -0.742696
     64 O12        -4.5730    1.8160    1.3020 o         1 MOL     -0.742696
     65 H26        -6.3770    0.0360    0.2730 hn        1 MOL      0.090063
     66 H27        -8.5100    1.2890    1.8360 h1        1 MOL      0.045602
     67 H28        -6.6760    0.8580    3.4940 hc        1 MOL      0.077899
     68 H29        -6.8790    2.5870    3.2470 hc        1 MOL      0.077899
     69 N6         -6.8960    2.3080   -0.5990 n         1 MOL     -0.320566
     70 C23        -6.7810    3.3900   -1.6990 c3        1 MOL     -0.120929
     71 C24        -5.4700    4.2270   -1.7620 c         1 MOL      0.533347
     72 O13        -5.4330    5.2970   -2.4250 o         1 MOL     -0.592439
     73 H30        -6.5620    1.3720   -0.7700 hn        1 MOL      0.298169
     74 H31        -7.5670    4.1380   -1.5680 h1        1 MOL      0.089168
     75 H32        -6.8610    2.9450   -2.6850 h1        1 MOL      0.089168
     76 N7         -4.3670    3.7250   -1.1630 n         1 MOL     -0.296253
     77 C25        -3.0490    4.2620   -1.1650 c3        1 MOL     -0.050195
     78 C26        -1.9790    3.1670   -1.2220 c         1 MOL      0.635646
     79 O14        -2.2260    2.1050   -0.7090 o         1 MOL     -0.658554
     80 C27        -2.9050    5.1300    0.0930 c3        1 MOL      0.030814
     81 C28        -3.6780    6.4090   -0.1430 c3        1 MOL     -0.163932
     82 C29        -3.3410    7.5310    0.8680 c         1 MOL      0.607686
     83 N8         -3.7440    7.3370    2.1310 n         1 MOL     -0.835452
     84 O15        -2.5050    8.3910    0.6290 o         1 MOL     -0.561666
     85 H33        -4.4980    2.7930   -0.8040 hn        1 MOL      0.260834
     86 H34        -2.9290    4.8250   -2.0920 h1        1 MOL      0.063022
     87 H35        -1.8470    5.4000    0.1130 hc        1 MOL      0.021564
     88 H36        -3.1170    4.6170    1.0320 hc        1 MOL      0.021564
     89 H37        -4.7560    6.2660   -0.1210 hc        1 MOL      0.068813
     90 H38        -3.4620    6.8520   -1.1170 hc        1 MOL      0.068813
     91 H39        -4.3590    6.5630    2.3250 hn        1 MOL      0.379224
     92 H40        -3.3360    7.9010    2.8640 hn        1 MOL      0.379224
     93 N9         -0.8370    3.5660   -1.7500 n         1 MOL     -0.429274
     94 C30         0.3350    2.7010   -1.9000 c3        1 MOL      0.068029
     95 C31         1.4910    3.0560   -0.9130 c         1 MOL      0.355094
     96 O16         1.8530    4.2290   -0.8270 o         1 MOL     -0.569657
     97 C32         0.7190    2.6850   -3.3610 c3        1 MOL      0.293744
     98 C33         1.9480    1.8410   -3.5170 c3        1 MOL     -0.290263
     99 C34        -0.4110    2.1570   -4.3660 c3        1 MOL     -0.290263
    100 H41        -0.6850    4.4890   -2.1370 hn        1 MOL      0.258820
    101 H42         0.0100    1.6860   -1.6710 h1        1 MOL      0.143732
    102 H43         0.9420    3.7010   -3.6800 hc        1 MOL     -0.042972
    103 H44         1.6700    0.8010   -3.3390 hc        1 MOL      0.053372
    104 H45         2.2030    1.9440   -4.5720 hc        1 MOL      0.053372
    105 H46         2.8320    2.1770   -2.9580 hc        1 MOL      0.053372
    106 H47        -1.3260    2.7270   -4.1970 hc        1 MOL      0.053372
    107 H48        -0.0300    2.4030   -5.3570 hc        1 MOL      0.053372
    108 H49        -0.5940    1.0960   -4.2200 hc        1 MOL      0.053372
    109 N10         1.9680    2.1150   -0.1190 n         1 MOL      0.003870
    110 C35         2.9440    2.2290    0.9450 c3        1 MOL      0.026291
    111 C36         4.2660    1.7740    0.3120 c         1 MOL      0.513706
    112 O17         4.2850    1.0920   -0.7210 o         1 MOL     -0.424115
    113 C37         2.5980    1.3880    2.1700 c3        1 MOL     -0.356012
    114 C38         3.4020    1.7260    3.4300 c         1 MOL      0.671200
    115 N11         3.3920    2.9360    3.9730 n         1 MOL     -0.786111
    116 O18         4.2340    0.9790    3.8070 o         1 MOL     -0.471908
    117 H50         1.4850    1.2290   -0.0970 hn        1 MOL      0.056059
    118 H51         3.0480    3.2840    1.1930 h1        1 MOL      0.051598
    119 H52         2.6800    0.3120    1.9900 hc        1 MOL      0.131348
    120 H53         1.5370    1.5370    2.3660 hc        1 MOL      0.131348
    121 H54         2.6830    3.6410    3.7960 hn        1 MOL      0.349686
    122 H55         3.9130    3.1220    4.8150 hn        1 MOL      0.349686
    123 N12         5.4640    2.1410    0.8580 n         1 MOL     -0.605454
    124 C39         6.7380    1.6890    0.2160 c3        1 MOL      0.214887
    125 C40         6.9070    0.1430    0.3220 c         1 MOL      0.601756
    126 O19         7.5030   -0.4510   -0.5410 o         1 MOL     -0.518699
    127 C41         7.9670    2.3100    0.9660 c3        1 MOL     -0.127261
    128 C42         9.2410    2.1110    0.2360 ca        1 MOL     -0.071034
    129 C43         9.2940    2.6510   -1.0840 ca        1 MOL     -0.082890
    130 C44        10.1940    1.1800    0.6290 ca        1 MOL     -0.082890
    131 C45        10.4530    2.3960   -1.8900 ca        1 MOL     -0.327357
    132 C46        11.3050    0.9800   -0.1610 ca        1 MOL     -0.327357
    133 C47        11.4340    1.5300   -1.4270 ca        1 MOL      0.409272
    134 O20        12.4640    1.2850   -2.2720 oh        1 MOL     -0.509126
    135 H56         5.5770    2.5340    1.7740 hn        1 MOL      0.291885
    136 H57         6.8180    2.0090   -0.8250 h1        1 MOL      0.057550
    137 H58         8.1000    1.7750    1.9090 hc        1 MOL      0.056628
    138 H59         7.8550    3.3860    1.0660 hc        1 MOL      0.056628
    139 H60         8.4930    3.3030   -1.3870 ha        1 MOL      0.132563
    140 H61        10.0580    0.6430    1.5470 ha        1 MOL      0.132563
    141 H62        10.6560    2.8230   -2.8540 ha        1 MOL      0.148905
    142 H63        12.0180    0.2480    0.1750 ha        1 MOL      0.148905
    143 H64        13.0850    0.6840   -1.8460 ho        1 MOL      0.358733
    144 N13         6.4020   -0.5520    1.3770 n         1 MOL     -0.414684
    145 C48         6.3900   -1.9910    1.4780 c3        1 MOL      0.031913
    146 C49         5.4560   -2.6670    0.3990 c         1 MOL      0.255766
    147 O21         5.5730   -3.8520    0.0790 o         1 MOL     -0.493475
    148 C50         5.9320   -2.4060    2.8590 c3        1 MOL      0.196839
    149 C51         6.9200   -2.0730    3.9620 c3        1 MOL     -0.295825
    150 C52         6.4350   -2.3430    5.3450 c         1 MOL      0.752043
    151 O22         5.7590   -3.3610    5.6860 o         1 MOL     -0.750163
    152 O23         6.6820   -1.5330    6.2730 o         1 MOL     -0.750163
    153 H65         5.9170   -0.0030    2.0770 hn        1 MOL      0.267972
    154 H66         7.4020   -2.3610    1.3250 h1        1 MOL      0.067063
    155 H67         5.7420   -3.4740    2.8080 hc        1 MOL     -0.019276
    156 H68         4.9720   -1.9410    3.0990 hc        1 MOL     -0.019276
    157 H69         7.1690   -1.0140    3.9530 hc        1 MOL      0.014001
    158 H70         7.8310   -2.6420    3.7800 hc        1 MOL      0.014001
    159 N14         4.5200   -1.8950   -0.1250 n         1 MOL      0.038770
    160 C53         3.6640   -2.2730   -1.3010 c3        1 MOL     -0.098013
    161 C54         4.3110   -1.9240   -2.6550 c         1 MOL      0.463374
    162 O24         4.2260   -2.7080   -3.6160 o         1 MOL     -0.564365
    163 C55         2.3150   -1.5610   -1.1140 c3        1 MOL     -0.040905
    164 C56         1.5320   -1.9390    0.2290 c3        1 MOL     -0.044218
    165 C57         0.0830   -1.3250    0.2610 c         1 MOL      0.663958
    166 O25        -0.9790   -2.0460    0.3250 o         1 MOL     -0.696339
    167 O26        -0.0840   -0.0900    0.1720 o         1 MOL     -0.696339
    168 H71         4.4320   -0.9620    0.2610 hn        1 MOL      0.067560
    169 H72         3.3950   -3.3290   -1.2720 h1        1 MOL      0.089306
    170 H73         1.6640   -1.8790   -1.9160 hc        1 MOL      0.044403
    171 H74         2.4210   -0.4830   -1.1580 hc        1 MOL      0.044403
    172 H75         2.1720   -1.5190    1.0030 hc        1 MOL     -0.008048
    173 H76         1.4720   -3.0140    0.3790 hc        1 MOL     -0.008048
    174 N15         5.0770   -0.8620   -2.7030 n         1 MOL     -0.045853
    175 C58         5.7940   -0.3070   -3.8360 c3        1 MOL     -0.218184
    176 H77         6.8660   -0.3470   -3.6420 h1        1 MOL      0.084227
    177 H78         5.5660   -0.8860   -4.7310 h1        1 MOL      0.084227
    178 H79         5.4920    0.7300   -3.9860 h1        1 MOL      0.084227
    179 H80         5.2990   -0.4810   -1.7860 hn        1 MOL      0.028328
    180 Ca1        -2.5900    0.3140    1.1300 Ca        1 MOL      1.775848
    181 O27        -1.2070   -0.1840    3.3110 oh        1 MOL     -0.867511
    182 H81        -1.6360   -0.9960    3.5860 ho        1 MOL      0.405276
    183 H82        -0.4090   -0.1440    3.8380 ho        1 MOL      0.405276
    184 O28        -1.8050    2.5660    2.2090 oh        1 MOL     -0.867511
    185 H83        -1.9740    3.4370    1.8510 ho        1 MOL      0.405276
    186 H84        -2.3590    2.5170    2.9790 ho        1 MOL      0.405276
@<TRIPOS>BOND
     1    1    2 1   
     2    1    4 1   
     3    1    5 1   
     4    1    6 1   
     5    2    3 2   
     6    2    7 1   
     7    7    8 1   
     8    7   15 1   
     9    8    9 1   
    10    8   11 1   
    11    8   16 1   
    12    9   10 2   
    13    9   19 1   
    14   11   12 1   
    15   11   17 1   
    16   11   18 1   
    17   12   13 1   
    18   12   14 1   
    19   19   20 1   
    20   19   27 1   
    21   20   21 1   
    22   20   23 1   
    23   20   28 1   
    24   21   22 2   
    25   21   38 1   
    26   23   24 1   
    27   23   25 1   
    28   23   29 1   
    29   24   26 1   
    30   24   30 1   
    31   24   31 1   
    32   25   32 1   
    33   25   33 1   
    34   25   34 1   
    35   26   35 1   
    36   26   36 1   
    37   26   37 1   
    38   38   39 1   
    39   38   46 1   
    40   39   40 1   
    41   39   42 1   
    42   39   47 1   
    43   40   41 2   
    44   40   50 1   
    45   42   43 1   
    46   42   48 1   
    47   42   49 1   
    48   43   44 1   
    49   43   45 1   
    50   50   51 1   
    51   50   54 1   
    52   51   52 1   
    53   51   55 1   
    54   51   56 1   
    55   52   53 2   
    56   52   57 1   
    57   57   58 1   
    58   57   65 1   
    59   58   59 1   
    60   58   61 1   
    61   58   66 1   
    62   59   60 2   
    63   59   69 1   
    64   61   62 1   
    65   61   67 1   
    66   61   68 1   
    67   62   63 1   
    68   62   64 1   
    69   69   70 1   
    70   69   73 1   
    71   70   71 1   
    72   70   74 1   
    73   70   75 1   
    74   71   72 2   
    75   71   76 1   
    76   76   77 1   
    77   76   85 1   
    78   77   78 1   
    79   77   80 1   
    80   77   86 1   
    81   78   79 2   
    82   78   93 1   
    83   80   81 1   
    84   80   87 1   
    85   80   88 1   
    86   81   82 1   
    87   81   89 1   
    88   81   90 1   
    89   82   83 1   
    90   82   84 2   
    91   83   91 1   
    92   83   92 1   
    93   93   94 1   
    94   93  100 1   
    95   94   95 1   
    96   94   97 1   
    97   94  101 1   
    98   95   96 2   
    99   95  109 1   
   100   97   98 1   
   101   97   99 1   
   102   97  102 1   
   103   98  103 1   
   104   98  104 1   
   105   98  105 1   
   106   99  106 1   
   107   99  107 1   
   108   99  108 1   
   109  109  110 1   
   110  109  117 1   
   111  110  111 1   
   112  110  113 1   
   113  110  118 1   
   114  111  112 2   
   115  111  123 1   
   116  113  114 1   
   117  113  119 1   
   118  113  120 1   
   119  114  115 1   
   120  114  116 2   
   121  115  121 1   
   122  115  122 1   
   123  123  124 1   
   124  123  135 1   
   125  124  125 1   
   126  124  127 1   
   127  124  136 1   
   128  125  126 2   
   129  125  144 1   
   130  127  128 1   
   131  127  137 1   
   132  127  138 1   
   133  128  129 ar  
   134  128  130 ar  
   135  129  131 ar  
   136  129  139 1   
   137  130  132 ar  
   138  130  140 1   
   139  131  133 ar  
   140  131  141 1   
   141  132  133 ar  
   142  132  142 1   
   143  133  134 1   
   144  134  143 1   
   145  144  145 1   
   146  144  153 1   
   147  145  146 1   
   148  145  148 1   
   149  145  154 1   
   150  146  147 2   
   151  146  159 1   
   152  148  149 1   
   153  148  155 1   
   154  148  156 1   
   155  149  150 1   
   156  149  157 1   
   157  149  158 1   
   158  150  151 1   
   159  150  152 1   
   160  159  160 1   
   161  159  168 1   
   162  160  161 1   
   163  160  163 1   
   164  160  169 1   
   165  161  162 2   
   166  161  174 1   
   167  163  164 1   
   168  163  170 1   
   169  163  171 1   
   170  164  165 1   
   171  164  172 1   
   172  164  173 1   
   173  165  166 1   
   174  165  167 1   
   175  174  175 1   
   176  174  179 1   
   177  175  176 1   
   178  175  177 1   
   179  175  178 1   
   180  181  182 1   
   181  181  183 1   
   182  184  185 1   
   183  184  186 1   
@<TRIPOS>SUBSTRUCTURE
     1 MOL         1 TEMP              0 ****  ****    0 ROOT
