@<TRIPOS>MOLECULE
MOL
  176   174     1     0     0
SMALL
resp


@<TRIPOS>ATOM
      1 C1          1.8360   -3.6220    6.6720 c3        1 MOL     -0.388489
      2 C2          1.1840   -3.3400    5.3000 c         1 MOL      0.718834
      3 O1          0.1640   -3.9000    4.9450 o         1 MOL     -0.579046
      4 H1          2.7210   -4.2420    6.5330 hc        1 MOL      0.095536
      5 H2          2.1220   -2.6800    7.1390 hc        1 MOL      0.095536
      6 H3          1.1240   -4.1440    7.3130 hc        1 MOL      0.095536
      7 N1          1.8510   -2.5000    4.5840 n         1 MOL     -0.604915
      8 C3          1.6540   -2.3100    3.0970 c3        1 MOL     -0.050376
      9 C4          1.4470   -3.6460    2.3570 c         1 MOL      0.781929
     10 O2          2.1050   -4.6710    2.4730 o         1 MOL     -0.552809
     11 C5          2.9110   -1.5540    2.5430 c3        1 MOL     -0.153911
     12 C6          2.7510   -1.2290    1.0470 c         1 MOL      0.787573
     13 O3          2.5610   -2.1120    0.1870 o         1 MOL     -0.754008
     14 O4          2.7430   -0.0300    0.6980 o         1 MOL     -0.754008
     15 H4          2.6710   -2.1850    5.0670 hn        1 MOL      0.325381
     16 H5          0.8370   -1.5970    3.1650 h1        1 MOL      0.122527
     17 H6          3.7210   -2.2750    2.6580 hc        1 MOL      0.056417
     18 H7          3.0780   -0.6710    3.1790 hc        1 MOL      0.056417
     19 N2          0.4440   -3.6120    1.4520 n         1 MOL     -0.575508
     20 C7         -0.0120   -4.8360    0.6940 c3        1 MOL      0.039719
     21 C8          1.0720   -5.4710   -0.2290 c         1 MOL      0.492154
     22 O5          0.9570   -6.6580   -0.6120 o         1 MOL     -0.582089
     23 C9         -1.3500   -4.4840   -0.1620 c3        1 MOL      0.153060
     24 C10        -2.1630   -5.7000   -0.5990 c3        1 MOL     -0.438641
     25 C11        -3.2550   -5.3170   -1.5740 c3        1 MOL      0.190866
     26 C12        -4.1090   -6.4790   -2.0540 c3        1 MOL      0.097370
     27 N3         -5.1570   -6.0570   -2.9810 n4        1 MOL     -0.503030
     28 H8          0.0550   -2.7150    1.2180 hn        1 MOL      0.244311
     29 H9         -0.3010   -5.6250    1.3860 h1        1 MOL      0.094899
     30 H10        -1.1080   -3.8200   -0.9900 hc        1 MOL      0.039391
     31 H11        -1.9630   -3.9690    0.5810 hc        1 MOL      0.039391
     32 H12        -2.5190   -6.1830    0.3150 hc        1 MOL      0.119116
     33 H13        -1.4960   -6.4150   -1.0960 hc        1 MOL      0.119116
     34 H14        -2.8540   -4.8780   -2.4950 hc        1 MOL     -0.019013
     35 H15        -3.9020   -4.5280   -1.1950 hc        1 MOL     -0.019013
     36 H16        -4.4920   -6.9420   -1.1460 hx        1 MOL      0.060323
     37 H17        -3.4540   -7.2740   -2.4250 hx        1 MOL      0.060323
     38 H18        -4.8060   -5.5490   -3.7880 hn        1 MOL      0.368787
     39 H19        -5.6830   -6.8940   -3.1930 hn        1 MOL      0.368787
     40 H20        -5.8190   -5.4880   -2.4780 hn        1 MOL      0.368787
     41 N4          2.0920   -4.7160   -0.6410 n         1 MOL     -0.295608
     42 C13         3.0220   -5.0780   -1.7340 c3        1 MOL      0.058898
     43 C14         4.4600   -4.7720   -1.2890 c         1 MOL      0.475017
     44 O6          5.4390   -5.2210   -1.8760 o         1 MOL     -0.562733
     45 C15         2.6740   -4.2980   -3.0110 c3        1 MOL     -0.270831
     46 C16         2.2640   -2.8630   -2.7610 c         1 MOL      0.729287
     47 O7          1.1300   -2.5860   -2.2750 o         1 MOL     -0.699444
     48 O8          3.0950   -1.9680   -3.0570 o         1 MOL     -0.699444
     49 H21         1.9810   -3.7250   -0.4910 hn        1 MOL      0.208237
     50 H22         3.0400   -6.1570   -1.8880 h1        1 MOL      0.107150
     51 H23         1.9680   -4.8190   -3.6490 hc        1 MOL      0.073080
     52 H24         3.5780   -4.3420   -3.6120 hc        1 MOL      0.073080
     53 N5          4.6650   -4.0200   -0.2090 n         1 MOL     -0.236302
     54 C17         5.8970   -3.6270    0.4070 c3        1 MOL     -0.077418
     55 C18         6.3610   -2.2020    0.1700 c         1 MOL      0.426363
     56 O9          7.2780   -1.7440    0.8290 o         1 MOL     -0.545504
     57 H25         3.8800   -3.5590    0.2390 hn        1 MOL      0.124679
     58 H26         6.6670   -4.2700   -0.0420 h1        1 MOL      0.097771
     59 H27         6.0150   -3.8700    1.4510 h1        1 MOL      0.097771
     60 N6          5.7320   -1.5220   -0.8210 n         1 MOL     -0.186543
     61 C19         6.2900   -0.2330   -1.2030 c3        1 MOL     -0.121530
     62 C20         6.2460    1.0060   -0.2130 c         1 MOL      0.341222
     63 O10         6.6880    2.0810   -0.5560 o         1 MOL     -0.435923
     64 C21         5.9500    0.1640   -2.6570 c3        1 MOL     -0.083627
     65 C22         4.5410    0.7730   -2.8200 c         1 MOL      0.787785
     66 N7          4.2890    1.3260   -3.9620 n         1 MOL     -0.774212
     67 O11         3.7370    0.7620   -1.8870 o         1 MOL     -0.641585
     68 H28         4.9060   -1.9170   -1.2560 hn        1 MOL      0.202988
     69 H29         7.3680   -0.4020   -1.1610 h1        1 MOL      0.141874
     70 H30         6.0760   -0.6270   -3.4040 hc        1 MOL      0.036439
     71 H31         6.6290    0.9740   -2.9230 hc        1 MOL      0.036439
     72 H32         4.9840    1.3190   -4.7000 hn        1 MOL      0.348987
     73 H33         3.3600    1.6170   -4.2100 hn        1 MOL      0.348987
     74 N8          5.6040    0.8680    0.9560 n         1 MOL     -0.077938
     75 C23         5.4940    1.8680    2.0730 c3        1 MOL     -0.322336
     76 C24         4.5590    3.0500    1.7710 c         1 MOL      0.586788
     77 O12         4.6260    4.0270    2.4330 o         1 MOL     -0.561734
     78 H34         5.1490   -0.0270    1.1100 hn        1 MOL      0.183163
     79 H35         6.5220    2.1840    2.2700 h1        1 MOL      0.137883
     80 H36         5.1410    1.3170    2.9490 h1        1 MOL      0.137883
     81 N9          3.6390    2.9200    0.7660 n         1 MOL      0.109127
     82 C25         2.5280    3.7950    0.4640 c3        1 MOL     -0.073440
     83 C26         1.1630    3.1430    0.1080 c         1 MOL      0.847925
     84 O13         1.0740    2.1980   -0.6090 o         1 MOL     -0.735322
     85 C27         3.0360    4.3900   -0.8880 c3        1 MOL     -0.203645
     86 C28         4.0740    5.4770   -0.8080 ca        1 MOL      0.071800
     87 C29         5.4220    5.2630   -1.0750 ca        1 MOL     -0.133292
     88 C30         3.6360    6.7880   -0.4120 ca        1 MOL     -0.133292
     89 C31         6.3160    6.3310   -0.8640 ca        1 MOL     -0.268646
     90 C32         4.5100    7.8180   -0.2950 ca        1 MOL     -0.268646
     91 C33         5.8940    7.6300   -0.4490 ca        1 MOL      0.329633
     92 O14         6.7700    8.6780   -0.4490 oh        1 MOL     -0.460224
     93 H37         3.6480    1.9970    0.3380 hn        1 MOL     -0.062027
     94 H38         2.3900    4.5240    1.2660 h1        1 MOL      0.038172
     95 H39         2.2300    4.8150   -1.4900 hc        1 MOL      0.056468
     96 H40         3.5290    3.5860   -1.4460 hc        1 MOL      0.056468
     97 H41         5.7570    4.2980   -1.4130 ha        1 MOL      0.111068
     98 H42         2.6140    7.0260   -0.1510 ha        1 MOL      0.111068
     99 H43         7.3610    6.1780   -1.0920 ha        1 MOL      0.141505
    100 H44         4.1150    8.8110   -0.1070 ha        1 MOL      0.141505
    101 H45         6.2850    9.3990   -0.0500 ho        1 MOL      0.334236
    102 N10         0.0640    3.5390    0.7470 n         1 MOL     -0.638557
    103 C34        -1.1400    2.7140    0.9190 c3        1 MOL      0.038656
    104 C35        -2.3960    3.5280    0.5700 c         1 MOL      0.515787
    105 O15        -2.5890    4.5630    1.2100 o         1 MOL     -0.551445
    106 C36        -1.1590    2.0630    2.2770 c3        1 MOL      0.079308
    107 C37         0.2160    1.4100    2.6550 c3        1 MOL      0.364962
    108 C38        -2.3730    1.0560    2.3690 c3        1 MOL     -0.266735
    109 C39         0.1840    1.1150    4.1760 c3        1 MOL     -0.453188
    110 H46         0.1840    4.3240    1.3620 hn        1 MOL      0.321644
    111 H47        -1.1090    1.8070    0.3210 h1        1 MOL      0.043120
    112 H48        -1.3470    2.8630    2.9900 hc        1 MOL     -0.008250
    113 H49         1.1260    2.0010    2.5450 hc        1 MOL     -0.092182
    114 H50         0.3650    0.5130    2.0730 hc        1 MOL     -0.092182
    115 H51        -3.2630    1.4990    1.9290 hc        1 MOL      0.064950
    116 H52        -2.1330    0.2640    1.6650 hc        1 MOL      0.064950
    117 H53        -2.4260    0.8790    3.4430 hc        1 MOL      0.064950
    118 H54        -0.4750    0.2530    4.3140 hc        1 MOL      0.106687
    119 H55         1.2060    0.7970    4.4050 hc        1 MOL      0.106687
    120 H56        -0.1910    1.9100    4.8220 hc        1 MOL      0.106687
    121 N11        -3.2360    3.1930   -0.3770 n         1 MOL     -0.265743
    122 C40        -4.4730    3.9270   -0.6780 c3        1 MOL      0.031819
    123 C41        -5.6810    3.3810    0.0990 c         1 MOL      0.304318
    124 O16        -5.6160    2.2950    0.7060 o         1 MOL     -0.238187
    125 C42        -4.7210    3.7640   -2.1930 c3        1 MOL     -0.045148
    126 O17        -4.8920    2.3560   -2.4370 oh        1 MOL     -0.528579
    127 H57        -3.0040    2.3570   -0.8870 hn        1 MOL      0.272644
    128 H58        -4.3680    5.0020   -0.6050 h1        1 MOL      0.089180
    129 H59        -3.7500    4.0080   -2.6220 h1        1 MOL      0.082794
    130 H60        -5.5900    4.3500   -2.5020 h1        1 MOL      0.082794
    131 H61        -5.3910    2.1980   -3.2370 ho        1 MOL      0.404639
    132 N12        -6.8250    4.0360    0.1830 n         1 MOL     -0.300149
    133 C43        -7.9650    3.5300    1.0090 c3        1 MOL     -0.062444
    134 C44        -8.5090    2.1660    0.5480 c         1 MOL      0.650973
    135 O18        -8.9140    1.3530    1.3950 o         1 MOL     -0.530208
    136 C45        -9.0980    4.6030    1.0190 c3        1 MOL     -0.287484
    137 H62        -6.9420    4.8760   -0.3700 hn        1 MOL      0.275479
    138 H63        -7.4980    3.4600    1.9860 h1        1 MOL      0.135629
    139 H64        -9.9030    4.3510    1.7170 hc        1 MOL      0.098962
    140 H65        -8.8200    5.6540    0.9490 hc        1 MOL      0.098962
    141 H66        -9.6600    4.4840    0.0990 hc        1 MOL      0.098962
    142 N13        -8.3600    1.8450   -0.7720 n         1 MOL     -0.593862
    143 C46        -8.7330    0.6180   -1.3620 c3        1 MOL      0.322198
    144 C47        -7.5820   -0.3770   -1.4220 c         1 MOL      0.344581
    145 O19        -7.8120   -1.5050   -1.8420 o         1 MOL     -0.558805
    146 C48        -9.4610    0.8350   -2.6860 c3        1 MOL     -0.233289
    147 H67        -7.9020    2.4790   -1.4010 hn        1 MOL      0.297398
    148 H68        -9.5220    0.2110   -0.7170 h1        1 MOL      0.074955
    149 H69       -10.0340   -0.0540   -2.9650 hc        1 MOL      0.061314
    150 H70       -10.2120    1.6120   -2.5500 hc        1 MOL      0.061314
    151 H71        -8.8210    1.1250   -3.5280 hc        1 MOL      0.061314
    152 N14        -6.3720   -0.0810   -0.8930 n         1 MOL     -0.126719
    153 C49        -5.3130   -1.0130   -0.4210 c3        1 MOL     -0.001516
    154 C50        -5.4400   -1.2930    1.0790 c         1 MOL      0.477712
    155 O20        -5.3930   -2.4330    1.4860 o         1 MOL     -0.571022
    156 C51        -3.9160   -0.4620   -0.6740 c3        1 MOL     -0.041671
    157 C52        -2.8170   -1.5130   -0.5410 c3        1 MOL     -0.080800
    158 C53        -1.4360   -0.9310   -0.9070 c         1 MOL      0.703084
    159 O21        -1.0970   -0.6660   -2.1100 o         1 MOL     -0.750611
    160 O22        -0.5830   -0.6920    0.0390 o         1 MOL     -0.750611
    161 H72        -6.2740    0.8840   -0.5980 hn        1 MOL     -0.085363
    162 H73        -5.4190   -1.9390   -0.9910 h1        1 MOL      0.084085
    163 H74        -3.7160    0.4360   -0.1000 hc        1 MOL      0.018852
    164 H75        -3.9250   -0.2280   -1.7370 hc        1 MOL      0.018852
    165 H76        -3.0800   -2.3800   -1.1530 hc        1 MOL      0.031034
    166 H77        -2.8310   -1.7490    0.5220 hc        1 MOL      0.031034
    167 N15        -5.7410   -0.2770    1.8680 n         1 MOL     -0.054644
    168 C54        -5.8570   -0.3230    3.3210 c3        1 MOL     -0.240263
    169 H78        -5.5730   -1.3140    3.6770 h1        1 MOL      0.103264
    170 H79        -5.1960    0.4230    3.7620 h1        1 MOL      0.103264
    171 H80        -6.8870   -0.1160    3.6110 h1        1 MOL      0.103264
    172 H81        -5.8590    0.6000    1.3950 hn        1 MOL      0.053568
    173 Ca1         1.3990   -0.2560   -1.4350 Ca        1 MOL      1.820019
    174 O23         1.4810    0.1970   -4.1450 oh        1 MOL     -0.869949
    175 H82         1.4560    0.9750   -4.7060 ho        1 MOL      0.423114
    176 H83         1.4430   -0.5420   -4.7500 ho        1 MOL      0.423114
@<TRIPOS>BOND
     1    1    2 1   
     2    1    4 1   
     3    1    5 1   
     4    1    6 1   
     5    2    3 2   
     6    2    7 1   
     7    7    8 1   
     8    7   15 1   
     9    8    9 1   
    10    8   11 1   
    11    8   16 1   
    12    9   10 2   
    13    9   19 1   
    14   11   12 1   
    15   11   17 1   
    16   11   18 1   
    17   12   13 1   
    18   12   14 1   
    19   19   20 1   
    20   19   28 1   
    21   20   21 1   
    22   20   23 1   
    23   20   29 1   
    24   21   22 2   
    25   21   41 1   
    26   23   24 1   
    27   23   30 1   
    28   23   31 1   
    29   24   25 1   
    30   24   32 1   
    31   24   33 1   
    32   25   26 1   
    33   25   34 1   
    34   25   35 1   
    35   26   27 1   
    36   26   36 1   
    37   26   37 1   
    38   27   38 1   
    39   27   39 1   
    40   27   40 1   
    41   41   42 1   
    42   41   49 1   
    43   42   43 1   
    44   42   45 1   
    45   42   50 1   
    46   43   44 2   
    47   43   53 1   
    48   45   46 1   
    49   45   51 1   
    50   45   52 1   
    51   46   47 1   
    52   46   48 1   
    53   53   54 1   
    54   53   57 1   
    55   54   55 1   
    56   54   58 1   
    57   54   59 1   
    58   55   56 2   
    59   55   60 1   
    60   60   61 1   
    61   60   68 1   
    62   61   62 1   
    63   61   64 1   
    64   61   69 1   
    65   62   63 2   
    66   62   74 1   
    67   64   65 1   
    68   64   70 1   
    69   64   71 1   
    70   65   66 1   
    71   65   67 2   
    72   66   72 1   
    73   66   73 1   
    74   74   75 1   
    75   74   78 1   
    76   75   76 1   
    77   75   79 1   
    78   75   80 1   
    79   76   77 2   
    80   76   81 1   
    81   81   82 1   
    82   81   93 1   
    83   82   83 1   
    84   82   85 1   
    85   82   94 1   
    86   83   84 2   
    87   83  102 1   
    88   85   86 1   
    89   85   95 1   
    90   85   96 1   
    91   86   87 ar  
    92   86   88 ar  
    93   87   89 ar  
    94   87   97 1   
    95   88   90 ar  
    96   88   98 1   
    97   89   91 ar  
    98   89   99 1   
    99   90   91 ar  
   100   90  100 1   
   101   91   92 1   
   102   92  101 1   
   103  102  103 1   
   104  102  110 1   
   105  103  104 1   
   106  103  106 1   
   107  103  111 1   
   108  104  105 2   
   109  104  121 1   
   110  106  107 1   
   111  106  108 1   
   112  106  112 1   
   113  107  109 1   
   114  107  113 1   
   115  107  114 1   
   116  108  115 1   
   117  108  116 1   
   118  108  117 1   
   119  109  118 1   
   120  109  119 1   
   121  109  120 1   
   122  121  122 1   
   123  121  127 1   
   124  122  123 1   
   125  122  125 1   
   126  122  128 1   
   127  123  124 2   
   128  123  132 1   
   129  125  126 1   
   130  125  129 1   
   131  125  130 1   
   132  126  131 1   
   133  132  133 1   
   134  132  137 1   
   135  133  134 1   
   136  133  136 1   
   137  133  138 1   
   138  134  135 2   
   139  134  142 1   
   140  136  139 1   
   141  136  140 1   
   142  136  141 1   
   143  142  143 1   
   144  142  147 1   
   145  143  144 1   
   146  143  146 1   
   147  143  148 1   
   148  144  145 2   
   149  144  152 1   
   150  146  149 1   
   151  146  150 1   
   152  146  151 1   
   153  152  153 1   
   154  152  161 1   
   155  153  154 1   
   156  153  156 1   
   157  153  162 1   
   158  154  155 2   
   159  154  167 1   
   160  156  157 1   
   161  156  163 1   
   162  156  164 1   
   163  157  158 1   
   164  157  165 1   
   165  157  166 1   
   166  158  159 1   
   167  158  160 1   
   168  167  168 1   
   169  167  172 1   
   170  168  169 1   
   171  168  170 1   
   172  168  171 1   
   173  174  175 1   
   174  174  176 1   
@<TRIPOS>SUBSTRUCTURE
     1 MOL         1 TEMP              0 ****  ****    0 ROOT
