@<TRIPOS>MOLECULE
MOL
  189   185     1     0     0
SMALL
resp


@<TRIPOS>ATOM
      1 C1          0.7100   -3.3440    6.3920 c3        1 MOL     -0.361582
      2 C2          0.8730   -3.0660    4.8680 c         1 MOL      0.788527
      3 O1          0.8290   -1.9250    4.4740 o         1 MOL     -0.603707
      4 H1          0.5270   -2.4060    6.9140 hc        1 MOL      0.086333
      5 H2         -0.1310   -4.0180    6.5510 hc        1 MOL      0.086333
      6 H3          1.6210   -3.8020    6.7770 hc        1 MOL      0.086333
      7 N1          1.2760   -4.0450    4.1360 n         1 MOL     -0.644416
      8 C3          1.9210   -3.7990    2.8110 c3        1 MOL      0.251317
      9 C4          1.7880   -4.9400    1.8340 c         1 MOL      0.518642
     10 O2          1.7790   -6.1160    2.2310 o         1 MOL     -0.588894
     11 C5          3.3690   -3.4660    3.0130 c3        1 MOL     -0.265693
     12 C6          4.1160   -2.8170    1.9170 c         1 MOL      0.778979
     13 O3          5.2910   -2.4470    2.1490 o         1 MOL     -0.704137
     14 O4          3.5660   -2.6440    0.7950 o         1 MOL     -0.704137
     15 H4          1.2920   -5.0180    4.4190 hn        1 MOL      0.316292
     16 H5          1.4360   -2.9540    2.3140 h1        1 MOL      0.083024
     17 H6          3.9120   -4.3780    3.2790 hc        1 MOL      0.062501
     18 H7          3.4350   -2.8180    3.8740 hc        1 MOL      0.062501
     19 N2          1.6600   -4.6910    0.4930 n         1 MOL     -0.213902
     20 C7          1.3090   -5.6470   -0.6200 c3        1 MOL     -0.104771
     21 C8          2.4300   -5.5990   -1.6530 c         1 MOL      0.611163
     22 O5          2.5770   -6.5810   -2.3970 o         1 MOL     -0.598451
     23 C9         -0.0670   -5.3770   -1.2930 c3        1 MOL      0.340790
     24 C10        -1.1130   -5.2010   -0.1520 c3        1 MOL      0.048740
     25 C11        -0.5900   -6.4880   -2.2490 c3        1 MOL     -0.314932
     26 C12        -2.4640   -4.6680   -0.6840 c3        1 MOL     -0.223750
     27 H8          1.6190   -3.7360    0.1710 hn        1 MOL     -0.098150
     28 H9          1.2150   -6.6790   -0.2990 h1        1 MOL      0.070272
     29 H10        -0.0390   -4.4350   -1.8380 hc        1 MOL     -0.019157
     30 H11        -0.7400   -4.4420    0.5390 hc        1 MOL     -0.024042
     31 H12        -1.1490   -6.1240    0.4140 hc        1 MOL     -0.024042
     32 H13        -1.0350   -7.3090   -1.6790 hc        1 MOL      0.056001
     33 H14        -1.3970   -6.0780   -2.8470 hc        1 MOL      0.056001
     34 H15         0.2430   -6.8280   -2.8610 hc        1 MOL      0.056001
     35 H16        -2.9760   -5.4640   -1.2160 hc        1 MOL      0.054587
     36 H17        -3.0420   -4.3870    0.1920 hc        1 MOL      0.054587
     37 H18        -2.3380   -3.8110   -1.3490 hc        1 MOL      0.054587
     38 N3          3.1670   -4.5260   -1.7260 n         1 MOL     -0.577534
     39 C13         4.1650   -4.2250   -2.7910 c3        1 MOL      0.289076
     40 C14         5.5240   -3.7700   -2.3060 c         1 MOL      0.274009
     41 O6          6.5470   -3.9540   -3.0180 o         1 MOL     -0.555270
     42 C15         3.4770   -3.3000   -3.8270 c3        1 MOL     -0.412525
     43 C16         2.8080   -1.9970   -3.1850 c         1 MOL      0.697682
     44 O7          3.0390   -1.6700   -2.0100 o         1 MOL     -0.675237
     45 O8          1.9260   -1.3250   -3.7910 o         1 MOL     -0.675237
     46 H19         2.7400   -3.6870   -1.3590 hn        1 MOL      0.471846
     47 H20         4.2710   -5.1760   -3.3240 h1        1 MOL      0.045191
     48 H21         2.6960   -3.8540   -4.3460 hc        1 MOL      0.107409
     49 H22         4.2140   -2.9650   -4.5480 hc        1 MOL      0.107409
     50 N4          5.5610   -3.1050   -1.1600 n         1 MOL     -0.063469
     51 C17         6.7850   -2.3380   -0.8270 c3        1 MOL     -0.254360
     52 C18         7.1380   -0.9970   -1.5450 c         1 MOL      0.604193
     53 O9          8.1750   -0.4740   -1.4740 o         1 MOL     -0.605158
     54 H23         4.7290   -3.0310   -0.6110 hn        1 MOL      0.099534
     55 H24         7.7000   -2.9200   -0.8140 h1        1 MOL      0.113242
     56 H25         6.6210   -2.2060    0.2370 h1        1 MOL      0.113242
     57 N5          6.1320   -0.3480   -2.1850 n         1 MOL     -0.297982
     58 C19         6.3330    0.9440   -2.8320 c3        1 MOL     -0.014594
     59 C20         6.8980    2.0830   -1.8720 c         1 MOL      0.420332
     60 O10         7.3530    3.1540   -2.3780 o         1 MOL     -0.563002
     61 C21         4.9890    1.3230   -3.4110 c3        1 MOL     -0.140677
     62 C22         3.8210    1.7190   -2.5030 c         1 MOL      0.763546
     63 O11         3.8910    1.4750   -1.2590 o         1 MOL     -0.668615
     64 O12         2.8610    2.2440   -3.1040 o         1 MOL     -0.668615
     65 H26         5.1960   -0.6980   -2.0440 hn        1 MOL      0.194743
     66 H27         6.9970    0.7340   -3.6560 h1        1 MOL      0.093150
     67 H28         4.6040    0.5570   -4.0850 hc        1 MOL      0.030327
     68 H29         5.1870    2.1560   -4.0930 hc        1 MOL      0.030327
     69 N6          6.8760    1.9020   -0.5190 n         1 MOL     -0.115739
     70 C23         7.2240    2.9590    0.4710 c3        1 MOL     -0.332970
     71 C24         6.0380    3.8030    0.9300 c         1 MOL      0.591570
     72 O13         6.2630    4.7400    1.6260 o         1 MOL     -0.602940
     73 H30         6.7240    0.9650   -0.1810 hn        1 MOL      0.224606
     74 H31         7.9080    3.6160   -0.0700 h1        1 MOL      0.132111
     75 H32         7.7200    2.5720    1.3570 h1        1 MOL      0.132111
     76 N7          4.8050    3.5890    0.4740 n         1 MOL     -0.252667
     77 C25         3.5550    4.3150    0.8720 c3        1 MOL     -0.016763
     78 C26         2.4420    3.3660    1.2290 c         1 MOL      0.552555
     79 O14         2.4990    2.1480    1.0890 o         1 MOL     -0.572159
     80 C27         3.0920    5.2890   -0.2580 c3        1 MOL     -0.066555
     81 C28         4.0110    6.5250   -0.4640 c3        1 MOL     -0.234020
     82 C29         3.3490    7.6080   -1.3300 c         1 MOL      0.648046
     83 N8          4.1830    8.4020   -2.0760 n         1 MOL     -0.847247
     84 O15         2.1310    7.8200   -1.3370 o         1 MOL     -0.533089
     85 H33         4.6750    2.7680   -0.1020 hn        1 MOL      0.147374
     86 H34         3.9520    4.8700    1.7210 h1        1 MOL      0.038872
     87 H35         2.1820    5.7370    0.1390 hc        1 MOL      0.057807
     88 H36         2.9130    4.6970   -1.1610 hc        1 MOL      0.057807
     89 H37         4.9120    6.1390   -0.9600 hc        1 MOL      0.098280
     90 H38         4.4630    6.9380    0.4340 hc        1 MOL      0.098280
     91 H39         5.1240    8.0830   -2.2220 hn        1 MOL      0.367200
     92 H40         3.7630    9.1180   -2.6550 hn        1 MOL      0.367200
     93 N9          1.4610    3.9710    1.8980 n         1 MOL     -0.495146
     94 C30         0.2060    3.3620    2.3230 c3        1 MOL      0.135638
     95 C31        -0.9470    3.5950    1.2760 c         1 MOL      0.400620
     96 O16        -1.5030    4.6500    1.1700 o         1 MOL     -0.564484
     97 C32        -0.2190    3.9340    3.6540 c3        1 MOL      0.150705
     98 C33        -1.5590    3.3760    4.0440 c3        1 MOL     -0.221189
     99 C34         0.7410    3.5980    4.7030 c3        1 MOL     -0.221189
    100 H41         1.4420    4.9720    2.0220 hn        1 MOL      0.322970
    101 H42         0.2760    2.2740    2.4500 h1        1 MOL      0.120115
    102 H43        -0.1440    5.0110    3.5310 hc        1 MOL     -0.020467
    103 H44        -1.5360    2.3120    3.8090 hc        1 MOL      0.042785
    104 H45        -1.7270    3.4580    5.1110 hc        1 MOL      0.042785
    105 H46        -2.4230    3.8500    3.5640 hc        1 MOL      0.042785
    106 H47         1.4920    4.3790    4.8470 hc        1 MOL      0.042785
    107 H48         0.3440    3.3560    5.6860 hc        1 MOL      0.042785
    108 H49         1.3650    2.7820    4.3360 hc        1 MOL      0.042785
    109 N10        -1.4060    2.5370    0.5490 n         1 MOL     -0.066086
    110 C35        -2.5250    2.6170   -0.3630 c3        1 MOL      0.044493
    111 C36        -3.8300    2.4740    0.4370 c         1 MOL      0.184086
    112 O17        -3.8550    1.9810    1.5650 o         1 MOL     -0.218661
    113 C37        -2.3560    1.4960   -1.3460 c3        1 MOL     -0.287322
    114 C38        -3.3260    1.4940   -2.5410 c         1 MOL      0.767433
    115 N11        -3.4290    2.5550   -3.3120 n         1 MOL     -0.812280
    116 O18        -4.0160    0.5670   -2.8330 o         1 MOL     -0.545151
    117 H50        -0.9570    1.6380    0.6570 hn        1 MOL      0.013656
    118 H51        -2.5310    3.5870   -0.8610 h1        1 MOL      0.063345
    119 H52        -2.4980    0.5100   -0.8970 hc        1 MOL      0.120630
    120 H53        -1.3200    1.5800   -1.6600 hc        1 MOL      0.120630
    121 H54        -2.8510    3.3870   -3.2050 hn        1 MOL      0.339345
    122 H55        -3.9680    2.5430   -4.1630 hn        1 MOL      0.339345
    123 N12        -4.9530    2.8740   -0.2510 n         1 MOL     -0.118643
    124 C39        -6.2560    2.6340    0.2480 c3        1 MOL     -0.008194
    125 C40        -6.6010    1.1390    0.6480 c         1 MOL      0.447578
    126 O19        -7.2560    0.9330    1.6950 o         1 MOL     -0.564584
    127 C41        -7.3490    3.3170   -0.7310 c3        1 MOL     -0.037879
    128 C42        -7.7770    2.4890   -1.8690 ca        1 MOL      0.089146
    129 C43        -7.1650    2.5230   -3.1550 ca        1 MOL     -0.285923
    130 C44        -8.8880    1.5930   -1.6710 ca        1 MOL     -0.285923
    131 C45        -7.6250    1.7230   -4.2560 ca        1 MOL     -0.236471
    132 C46        -9.3060    0.7980   -2.7610 ca        1 MOL     -0.236471
    133 C47        -8.7880    0.9270   -4.0270 ca        1 MOL      0.336465
    134 O20        -9.3100    0.2340   -5.0480 oh        1 MOL     -0.539971
    135 H56        -4.8980    3.4240   -1.0950 hn        1 MOL      0.146353
    136 H57        -6.2680    3.1730    1.1900 h1        1 MOL      0.030784
    137 H58        -6.9410    4.2680   -1.0770 hc        1 MOL      0.021121
    138 H59        -8.1860    3.5490   -0.0710 hc        1 MOL      0.021121
    139 H60        -6.2510    3.0890   -3.2550 ha        1 MOL      0.187557
    140 H61        -9.3820    1.4900   -0.7160 ha        1 MOL      0.187557
    141 H62        -7.2590    1.7150   -5.2760 ha        1 MOL      0.158595
    142 H63       -10.2000    0.2110   -2.6380 ha        1 MOL      0.158595
    143 H64        -9.9990   -0.3390   -4.7060 ho        1 MOL      0.402631
    144 N13        -5.9520    0.1820    0.0010 n         1 MOL      0.039700
    145 C48        -6.1990   -1.2390    0.3310 c3        1 MOL     -0.085437
    146 C49        -5.3240   -1.6470    1.5580 c         1 MOL      0.329405
    147 O21        -5.5440   -2.7270    2.1320 o         1 MOL     -0.516161
    148 C50        -5.8180   -2.1450   -0.8640 c3        1 MOL      0.100609
    149 C51        -6.7810   -1.9180   -2.1350 c3        1 MOL     -0.018965
    150 C52        -8.1990   -2.4520   -1.9380 c         1 MOL      0.690465
    151 O22        -8.5360   -3.4300   -2.6670 o         1 MOL     -0.732536
    152 O23        -8.8940   -1.9350   -1.0430 o         1 MOL     -0.732536
    153 H65        -5.2620    0.3060   -0.7150 hn        1 MOL      0.077229
    154 H66        -7.2550   -1.4390    0.4910 h1        1 MOL      0.130355
    155 H67        -5.8220   -3.2050   -0.6070 hc        1 MOL     -0.024538
    156 H68        -4.7620   -1.9220   -1.0320 hc        1 MOL     -0.024538
    157 H69        -6.3320   -2.4040   -2.9930 hc        1 MOL     -0.027965
    158 H70        -6.7510   -0.8510   -2.3320 hc        1 MOL     -0.027965
    159 N14        -4.3790   -0.7260    1.9640 n         1 MOL     -0.083930
    160 C53        -3.3870   -1.1270    2.9720 c3        1 MOL      0.180613
    161 C54        -3.6580   -0.3490    4.2100 c         1 MOL      0.353085
    162 O24        -3.6360   -1.1190    5.1610 o         1 MOL     -0.560058
    163 C55        -2.0390   -0.8110    2.4110 c3        1 MOL      0.068537
    164 C56        -1.7120   -1.6370    1.1390 c3        1 MOL     -0.313915
    165 C57        -0.3510   -1.1680    0.5990 c         1 MOL      0.610559
    166 O25         0.4610   -1.8940    0.0090 o         1 MOL     -0.572804
    167 O26         0.0180    0.0440    0.7510 o         1 MOL     -0.572804
    168 H71        -4.2710    0.1920    1.5710 hn        1 MOL     -0.110946
    169 H72        -3.4470   -2.1890    3.1730 h1        1 MOL      0.038191
    170 H73        -1.4050   -1.0480    3.2560 hc        1 MOL     -0.038456
    171 H74        -1.9850    0.2440    2.1240 hc        1 MOL     -0.038456
    172 H75        -2.4710   -1.4910    0.3660 hc        1 MOL      0.116077
    173 H76        -1.7360   -2.7160    1.2640 hc        1 MOL      0.116077
    174 N15        -4.0350    0.9280    4.2480 n         1 MOL     -0.077354
    175 C58        -4.5120    1.7210    5.3950 c3        1 MOL     -0.130390
    176 H77        -4.1100    2.7320    5.3300 h1        1 MOL      0.062841
    177 H78        -5.6010    1.7620    5.3820 h1        1 MOL      0.062841
    178 H79        -4.1770    1.2570    6.3230 h1        1 MOL      0.062841
    179 H80        -4.1740    1.3340    3.3380 hn        1 MOL      0.115073
    180 Ca1         2.5980   -0.3110    0.2300 Ca        1 MOL      1.694406
    181 O27         2.1970   -0.2300    2.8060 oh        1 MOL     -0.893825
    182 O28         1.2340    0.6020   -2.0330 oh        1 MOL     -0.893825
    183 H81         2.4400    0.5760    3.2620 ho        1 MOL      0.411456
    184 H82         1.9430    1.1390   -2.4050 ho        1 MOL      0.411456
    185 H83         1.6400   -0.7030    3.4200 ho        1 MOL      0.411456
    186 H84         1.1240   -0.1120   -2.6640 ho        1 MOL      0.411456
    187 O29         5.1130    0.0340    1.2380 oh        1 MOL     -0.893825
    188 H85         5.1800    0.6290    1.9790 ho        1 MOL      0.411456
    189 H86         5.2900   -0.8290    1.6050 ho        1 MOL      0.411456
@<TRIPOS>BOND
     1    1    2 1   
     2    1    4 1   
     3    1    5 1   
     4    1    6 1   
     5    2    3 2   
     6    2    7 1   
     7    7    8 1   
     8    7   15 1   
     9    8    9 1   
    10    8   11 1   
    11    8   16 1   
    12    9   10 2   
    13    9   19 1   
    14   11   12 1   
    15   11   17 1   
    16   11   18 1   
    17   12   13 1   
    18   12   14 1   
    19   19   20 1   
    20   19   27 1   
    21   20   21 1   
    22   20   23 1   
    23   20   28 1   
    24   21   22 2   
    25   21   38 1   
    26   23   24 1   
    27   23   25 1   
    28   23   29 1   
    29   24   26 1   
    30   24   30 1   
    31   24   31 1   
    32   25   32 1   
    33   25   33 1   
    34   25   34 1   
    35   26   35 1   
    36   26   36 1   
    37   26   37 1   
    38   38   39 1   
    39   38   46 1   
    40   39   40 1   
    41   39   42 1   
    42   39   47 1   
    43   40   41 2   
    44   40   50 1   
    45   42   43 1   
    46   42   48 1   
    47   42   49 1   
    48   43   44 1   
    49   43   45 1   
    50   50   51 1   
    51   50   54 1   
    52   51   52 1   
    53   51   55 1   
    54   51   56 1   
    55   52   53 2   
    56   52   57 1   
    57   57   58 1   
    58   57   65 1   
    59   58   59 1   
    60   58   61 1   
    61   58   66 1   
    62   59   60 2   
    63   59   69 1   
    64   61   62 1   
    65   61   67 1   
    66   61   68 1   
    67   62   63 1   
    68   62   64 1   
    69   69   70 1   
    70   69   73 1   
    71   70   71 1   
    72   70   74 1   
    73   70   75 1   
    74   71   72 2   
    75   71   76 1   
    76   76   77 1   
    77   76   85 1   
    78   77   78 1   
    79   77   80 1   
    80   77   86 1   
    81   78   79 2   
    82   78   93 1   
    83   80   81 1   
    84   80   87 1   
    85   80   88 1   
    86   81   82 1   
    87   81   89 1   
    88   81   90 1   
    89   82   83 1   
    90   82   84 2   
    91   83   91 1   
    92   83   92 1   
    93   93   94 1   
    94   93  100 1   
    95   94   95 1   
    96   94   97 1   
    97   94  101 1   
    98   95   96 2   
    99   95  109 1   
   100   97   98 1   
   101   97   99 1   
   102   97  102 1   
   103   98  103 1   
   104   98  104 1   
   105   98  105 1   
   106   99  106 1   
   107   99  107 1   
   108   99  108 1   
   109  109  110 1   
   110  109  117 1   
   111  110  111 1   
   112  110  113 1   
   113  110  118 1   
   114  111  112 2   
   115  111  123 1   
   116  113  114 1   
   117  113  119 1   
   118  113  120 1   
   119  114  115 1   
   120  114  116 2   
   121  115  121 1   
   122  115  122 1   
   123  123  124 1   
   124  123  135 1   
   125  124  125 1   
   126  124  127 1   
   127  124  136 1   
   128  125  126 2   
   129  125  144 1   
   130  127  128 1   
   131  127  137 1   
   132  127  138 1   
   133  128  129 ar  
   134  128  130 ar  
   135  129  131 ar  
   136  129  139 1   
   137  130  132 ar  
   138  130  140 1   
   139  131  133 ar  
   140  131  141 1   
   141  132  133 ar  
   142  132  142 1   
   143  133  134 1   
   144  134  143 1   
   145  144  145 1   
   146  144  153 1   
   147  145  146 1   
   148  145  148 1   
   149  145  154 1   
   150  146  147 2   
   151  146  159 1   
   152  148  149 1   
   153  148  155 1   
   154  148  156 1   
   155  149  150 1   
   156  149  157 1   
   157  149  158 1   
   158  150  151 1   
   159  150  152 1   
   160  159  160 1   
   161  159  168 1   
   162  160  161 1   
   163  160  163 1   
   164  160  169 1   
   165  161  162 2   
   166  161  174 1   
   167  163  164 1   
   168  163  170 1   
   169  163  171 1   
   170  164  165 1   
   171  164  172 1   
   172  164  173 1   
   173  165  166 1   
   174  165  167 1   
   175  174  175 1   
   176  174  179 1   
   177  175  176 1   
   178  175  177 1   
   179  175  178 1   
   180  181  183 1   
   181  181  185 1   
   182  182  184 1   
   183  182  186 1   
   184  187  188 1   
   185  187  189 1   
@<TRIPOS>SUBSTRUCTURE
     1 MOL         1 TEMP              0 ****  ****    0 ROOT
