@<TRIPOS>MOLECULE
MOL
  179   176     1     0     0
SMALL
resp


@<TRIPOS>ATOM
      1 C1         -1.7770   -1.4940    6.0840 c3        1 MOL     -0.309334
      2 C2         -1.2330   -1.2680    4.6510 c         1 MOL      0.753682
      3 O1         -1.9710   -0.8130    3.7740 o         1 MOL     -0.629899
      4 H1         -1.6780   -0.5730    6.6590 hc        1 MOL      0.081993
      5 H2         -2.8280   -1.7780    6.0330 hc        1 MOL      0.081993
      6 H3         -1.2070   -2.2870    6.5690 hc        1 MOL      0.081993
      7 N1          0.0560   -1.5310    4.3900 n         1 MOL     -0.603873
      8 C3          0.6260   -1.7570    3.0180 c3        1 MOL     -0.102751
      9 C4          0.5190   -3.2160    2.5780 c         1 MOL      0.723359
     10 O2          1.0230   -4.1630    3.1870 o         1 MOL     -0.582853
     11 C5          2.0480   -1.1820    2.9220 c3        1 MOL      0.056446
     12 C6          2.7960   -1.3460    1.5960 c         1 MOL      0.686199
     13 O3          4.0010   -1.1090    1.6550 o         1 MOL     -0.706637
     14 O4          2.1840   -1.7510    0.5660 o         1 MOL     -0.706637
     15 H4          0.5960   -1.8140    5.1980 hn        1 MOL      0.325093
     16 H5         -0.0030   -1.1770    2.3430 h1        1 MOL      0.054426
     17 H6          2.6810   -1.7280    3.6280 hc        1 MOL      0.004785
     18 H7          2.0720   -0.1430    3.2540 hc        1 MOL      0.004785
     19 N2         -0.2160   -3.4790    1.4840 n         1 MOL     -0.385108
     20 C7         -0.6060   -4.8090    1.0530 c3        1 MOL     -0.275504
     21 C8          0.5140   -5.6390    0.3090 c         1 MOL      0.609254
     22 O5          0.4380   -6.8690    0.3730 o         1 MOL     -0.588946
     23 C9         -1.7310   -4.5600    0.0520 c3        1 MOL      0.173913
     24 C10        -2.5560   -5.8580   -0.1210 c3        1 MOL     -0.103806
     25 C11        -3.8100   -5.4700   -0.9840 c3        1 MOL      0.261732
     26 C12        -4.5020   -6.7100   -1.4650 c3        1 MOL     -0.000663
     27 N3         -5.5520   -6.3930   -2.5280 n4        1 MOL     -0.384818
     28 H8         -0.3360   -2.7130    0.8420 hn        1 MOL      0.226284
     29 H9         -1.0080   -5.4250    1.8480 h1        1 MOL      0.161366
     30 H10        -1.3350   -4.3160   -0.9270 hc        1 MOL      0.002506
     31 H11        -2.4300   -3.8200    0.4330 hc        1 MOL      0.002506
     32 H12        -2.8650   -6.2790    0.8440 hc        1 MOL      0.022509
     33 H13        -2.0360   -6.6350   -0.6710 hc        1 MOL      0.022509
     34 H14        -3.3940   -4.9630   -1.8510 hc        1 MOL     -0.065499
     35 H15        -4.4360   -4.7090   -0.5020 hc        1 MOL     -0.065499
     36 H16        -4.9830   -7.0800   -0.5630 hx        1 MOL      0.082864
     37 H17        -3.8020   -7.4670   -1.8290 hx        1 MOL      0.082864
     38 H18        -5.0550   -5.8860   -3.2450 hn        1 MOL      0.330915
     39 H19        -6.0210   -7.1740   -2.9720 hn        1 MOL      0.330915
     40 H20        -6.2720   -5.7970   -2.1400 hn        1 MOL      0.330915
     41 N4          1.4670   -4.9920   -0.3220 n         1 MOL     -0.255044
     42 C13         2.5640   -5.5720   -1.0830 c3        1 MOL     -0.079738
     43 C14         3.9190   -5.1000   -0.5450 c         1 MOL      0.444520
     44 O6          4.9070   -5.7190   -0.8790 o         1 MOL     -0.537238
     45 C15         2.4300   -5.2860   -2.6020 c3        1 MOL     -0.154849
     46 C16         2.1260   -3.8430   -2.8970 c         1 MOL      0.791495
     47 O7          2.2090   -2.9420   -2.0490 o         1 MOL     -0.760007
     48 O8          1.8900   -3.5540   -4.0890 o         1 MOL     -0.760007
     49 H21         1.6040   -3.9920   -0.2640 hn        1 MOL      0.166429
     50 H22         2.5340   -6.6620   -0.9320 h1        1 MOL      0.119059
     51 H23         1.5900   -5.8940   -2.9270 hc        1 MOL      0.060363
     52 H24         3.3080   -5.5730   -3.1820 hc        1 MOL      0.060363
     53 N5          3.9870   -4.1890    0.4280 n         1 MOL     -0.063176
     54 C17         5.1390   -3.9260    1.2570 c3        1 MOL     -0.144980
     55 C18         6.2780   -3.1480    0.4570 c         1 MOL      0.461434
     56 O9          7.4870   -3.3510    0.6400 o         1 MOL     -0.541788
     57 H25         3.0630   -3.9360    0.7590 hn        1 MOL      0.118127
     58 H26         5.5750   -4.8350    1.6790 h1        1 MOL      0.092599
     59 H27         4.8660   -3.3450    2.1310 h1        1 MOL      0.092599
     60 N6          5.8100   -2.2320   -0.3990 n         1 MOL     -0.085820
     61 C19         6.5580   -1.3070   -1.1740 c3        1 MOL     -0.207503
     62 C20         6.8800   -0.0070   -0.4830 c         1 MOL      0.523227
     63 O10         7.6690    0.7970   -0.9790 o         1 MOL     -0.519505
     64 C21         5.8280   -1.0460   -2.5050 c3        1 MOL     -0.121939
     65 C22         4.9470    0.2350   -2.4960 c         1 MOL      0.334280
     66 N7          5.2890    1.2270   -3.2820 n         1 MOL     -0.570855
     67 O11         3.9620    0.3470   -1.7410 o         1 MOL     -0.458419
     68 H28         4.8040   -2.1200   -0.4560 hn        1 MOL      0.060639
     69 H29         7.5110   -1.8050   -1.3740 h1        1 MOL      0.150471
     70 H30         5.2250   -1.9230   -2.7670 hc        1 MOL      0.116090
     71 H31         6.5090   -1.0570   -3.3460 hc        1 MOL      0.116090
     72 H32         5.9950    1.1110   -3.9850 hn        1 MOL      0.327212
     73 H33         4.6490    2.0080   -3.3980 hn        1 MOL      0.327212
     74 N8          6.4020    0.1010    0.7810 n         1 MOL     -0.271973
     75 C23         6.6110    1.2770    1.6410 c3        1 MOL     -0.112598
     76 C24         5.6790    2.4750    1.2710 c         1 MOL      0.315298
     77 O12         5.9950    3.6280    1.4180 o         1 MOL     -0.458767
     78 H34         5.8890   -0.6650    1.2140 hn        1 MOL      0.274072
     79 H35         7.6870    1.4460    1.5570 h1        1 MOL      0.102908
     80 H36         6.5870    1.1020    2.7170 h1        1 MOL      0.102908
     81 N9          4.5070    2.1700    0.7120 n         1 MOL     -0.156215
     82 C25         3.4250    3.1880    0.4380 c3        1 MOL      0.250057
     83 C26         2.0810    2.5350    0.6040 c         1 MOL      0.324220
     84 O13         1.8520    1.3090    0.3020 o         1 MOL     -0.644964
     85 C27         3.5600    3.9050   -0.9560 c3        1 MOL     -0.229572
     86 C28         3.9760    5.3480   -0.8190 ca        1 MOL      0.126283
     87 C29         5.3290    5.7820   -0.8510 ca        1 MOL     -0.251433
     88 C30         2.9110    6.2690   -0.7880 ca        1 MOL     -0.251433
     89 C31         5.6520    7.1030   -0.8220 ca        1 MOL     -0.200623
     90 C32         3.2460    7.6450   -0.6630 ca        1 MOL     -0.200623
     91 C33         4.6080    8.0380   -0.6610 ca        1 MOL      0.276621
     92 O14         4.9480    9.3120   -0.4180 oh        1 MOL     -0.426847
     93 H37         4.3680    1.1910    0.5200 hn        1 MOL      0.200022
     94 H38         3.4460    3.9260    1.2400 h1        1 MOL      0.037893
     95 H39         2.5970    3.8470   -1.4490 hc        1 MOL      0.066667
     96 H40         4.2850    3.3720   -1.5760 hc        1 MOL      0.066667
     97 H41         6.0750    5.0020   -0.7670 ha        1 MOL      0.183497
     98 H42         1.9120    5.8530   -0.7890 ha        1 MOL      0.183497
     99 H43         6.6490    7.4250   -0.5360 ha        1 MOL      0.141822
    100 H44         2.4470    8.3650   -0.6040 ha        1 MOL      0.141822
    101 H45         4.1760    9.8480   -0.2270 ho        1 MOL      0.328415
    102 N10         1.0960    3.3960    0.9740 n         1 MOL     -0.426103
    103 C34        -0.3260    2.9580    1.1420 c3        1 MOL      0.121574
    104 C35        -1.2620    3.8070    0.2730 c         1 MOL      0.317468
    105 O15        -1.3400    5.0360    0.2890 o         1 MOL     -0.555916
    106 C36        -0.6730    3.1120    2.6830 c3        1 MOL      0.191228
    107 C37         0.1890    2.1190    3.5120 c3        1 MOL      0.271984
    108 C38        -2.1410    2.7990    2.8560 c3        1 MOL     -0.392737
    109 C39         0.0700    2.1820    4.9960 c3        1 MOL     -0.400044
    110 H46         1.4010    4.3150    1.2530 hn        1 MOL      0.253844
    111 H47        -0.4440    1.9060    0.9190 h1        1 MOL      0.015547
    112 H48        -0.4040    4.1190    3.0110 hc        1 MOL     -0.008939
    113 H49         1.2190    2.4460    3.3590 hc        1 MOL     -0.021649
    114 H50         0.0360    1.1420    3.0560 hc        1 MOL     -0.021649
    115 H51        -2.3400    1.8400    2.3790 hc        1 MOL      0.090345
    116 H52        -2.3620    2.9110    3.9120 hc        1 MOL      0.090345
    117 H53        -2.8010    3.5120    2.3520 hc        1 MOL      0.090345
    118 H54         0.8160    1.5370    5.4570 hc        1 MOL      0.087739
    119 H55         0.2180    3.2420    5.1910 hc        1 MOL      0.087739
    120 H56        -0.9330    1.8380    5.2680 hc        1 MOL      0.087739
    121 N11        -2.0860    3.1010   -0.5290 n         1 MOL     -0.007618
    122 C40        -3.1150    3.6910   -1.4190 c3        1 MOL     -0.164529
    123 C41        -4.5160    3.4520   -0.8330 c         1 MOL      0.650428
    124 O16        -4.6900    2.5370   -0.0690 o         1 MOL     -0.542275
    125 C42        -3.0780    3.0080   -2.7750 c3        1 MOL     -0.001062
    126 O17        -3.4210    1.6590   -2.7490 oh        1 MOL     -0.538101
    127 H57        -2.0780    2.0910   -0.4620 hn        1 MOL      0.230982
    128 H58        -3.0240    4.7770   -1.4910 h1        1 MOL      0.089638
    129 H59        -2.0460    3.1930   -3.0720 h1        1 MOL      0.058088
    130 H60        -3.7910    3.5700   -3.3710 h1        1 MOL      0.058088
    131 H61        -2.7780    1.1420   -2.2660 ho        1 MOL      0.356984
    132 N12        -5.5660    4.2410   -1.0560 n         1 MOL     -0.521724
    133 C43        -6.9460    4.0880   -0.4370 c3        1 MOL      0.095253
    134 C44        -7.5830    2.6230   -0.6700 c         1 MOL      0.426494
    135 O18        -8.2540    2.0270    0.2210 o         1 MOL     -0.501934
    136 C45        -8.0010    5.1000   -0.9660 c3        1 MOL     -0.201639
    137 H62        -5.4560    4.8920   -1.8120 hn        1 MOL      0.294625
    138 H63        -6.9330    4.3790    0.6080 h1        1 MOL      0.110140
    139 H64        -7.6350    6.1260   -0.8880 hc        1 MOL      0.069002
    140 H65        -8.0640    4.8010   -2.0150 hc        1 MOL      0.069002
    141 H66        -8.9850    5.0920   -0.4900 hc        1 MOL      0.069002
    142 N13        -7.3670    2.0680   -1.8120 n         1 MOL     -0.337523
    143 C46        -7.7660    0.6540   -2.1290 c3        1 MOL      0.040353
    144 C47        -7.1650   -0.4640   -1.3160 c         1 MOL      0.460827
    145 O19        -7.6560   -1.5540   -1.2440 o         1 MOL     -0.532055
    146 C48        -7.4350    0.4440   -3.5550 c3        1 MOL     -0.238700
    147 H67        -6.7040    2.5180   -2.4320 hn        1 MOL      0.314436
    148 H68        -8.8540    0.6420   -1.9680 h1        1 MOL      0.104041
    149 H69        -7.5040    1.3260   -4.1980 hc        1 MOL      0.070638
    150 H70        -6.4100    0.0670   -3.5290 hc        1 MOL      0.070638
    151 H71        -8.0830   -0.3440   -3.9360 hc        1 MOL      0.070638
    152 N14        -6.0220   -0.1400   -0.6870 n         1 MOL     -0.094395
    153 C49        -5.4590   -0.8650    0.4560 c3        1 MOL     -0.372861
    154 C50        -6.2210   -0.6070    1.7210 c         1 MOL      0.551002
    155 O20        -6.3280   -1.5150    2.5710 o         1 MOL     -0.568678
    156 C51        -3.9340   -0.5740    0.5900 c3        1 MOL      0.244257
    157 C52        -3.2030   -1.1380   -0.6660 c3        1 MOL     -0.034661
    158 C53        -1.7460   -0.6600   -0.7120 c         1 MOL      0.605359
    159 O21        -1.4110    0.3880   -1.3040 o         1 MOL     -0.656538
    160 O22        -0.8580   -1.3310   -0.2040 o         1 MOL     -0.656538
    161 H72        -5.8770    0.8560   -0.7550 hn        1 MOL      0.047207
    162 H73        -5.6980   -1.9050    0.2420 h1        1 MOL      0.170319
    163 H74        -3.5710   -1.1350    1.4570 hc        1 MOL      0.036605
    164 H75        -3.6550    0.4130    0.9450 hc        1 MOL      0.036605
    165 H76        -3.6750   -0.9180   -1.6300 hc        1 MOL     -0.030038
    166 H77        -3.2140   -2.2020   -0.4200 hc        1 MOL     -0.030038
    167 N15        -6.7950    0.6000    1.9870 n         1 MOL     -0.151885
    168 C54        -7.5300    0.9290    3.2580 c3        1 MOL     -0.278561
    169 H78        -6.9390    1.6300    3.8470 h1        1 MOL      0.121386
    170 H79        -8.4920    1.3800    3.0160 h1        1 MOL      0.121386
    171 H80        -7.6890    0.0160    3.8320 h1        1 MOL      0.121386
    172 H81        -6.7400    1.2520    1.2160 hn        1 MOL      0.143854
    173 Ca1         1.2560   -0.5140   -1.4470 Ca        1 MOL      1.772937
    174 O23         1.3220    1.7860   -2.6770 oh        1 MOL     -0.905452
    175 H82         0.8730    2.6050   -2.4770 ho        1 MOL      0.427214
    176 H83         2.1150    2.0520   -3.1450 ho        1 MOL      0.427214
    177 O24        -0.1290   -1.5570   -3.3070 oh        1 MOL     -0.905452
    178 H84         0.3610   -2.2480   -3.7440 ho        1 MOL      0.427214
    179 H85        -0.8900   -1.4190   -3.8750 ho        1 MOL      0.427214
@<TRIPOS>BOND
     1    1    2 1   
     2    1    4 1   
     3    1    5 1   
     4    1    6 1   
     5    2    3 2   
     6    2    7 1   
     7    7    8 1   
     8    7   15 1   
     9    8    9 1   
    10    8   11 1   
    11    8   16 1   
    12    9   10 2   
    13    9   19 1   
    14   11   12 1   
    15   11   17 1   
    16   11   18 1   
    17   12   13 1   
    18   12   14 1   
    19   19   20 1   
    20   19   28 1   
    21   20   21 1   
    22   20   23 1   
    23   20   29 1   
    24   21   22 2   
    25   21   41 1   
    26   23   24 1   
    27   23   30 1   
    28   23   31 1   
    29   24   25 1   
    30   24   32 1   
    31   24   33 1   
    32   25   26 1   
    33   25   34 1   
    34   25   35 1   
    35   26   27 1   
    36   26   36 1   
    37   26   37 1   
    38   27   38 1   
    39   27   39 1   
    40   27   40 1   
    41   41   42 1   
    42   41   49 1   
    43   42   43 1   
    44   42   45 1   
    45   42   50 1   
    46   43   44 2   
    47   43   53 1   
    48   45   46 1   
    49   45   51 1   
    50   45   52 1   
    51   46   47 1   
    52   46   48 1   
    53   53   54 1   
    54   53   57 1   
    55   54   55 1   
    56   54   58 1   
    57   54   59 1   
    58   55   56 2   
    59   55   60 1   
    60   60   61 1   
    61   60   68 1   
    62   61   62 1   
    63   61   64 1   
    64   61   69 1   
    65   62   63 2   
    66   62   74 1   
    67   64   65 1   
    68   64   70 1   
    69   64   71 1   
    70   65   66 1   
    71   65   67 2   
    72   66   72 1   
    73   66   73 1   
    74   74   75 1   
    75   74   78 1   
    76   75   76 1   
    77   75   79 1   
    78   75   80 1   
    79   76   77 2   
    80   76   81 1   
    81   81   82 1   
    82   81   93 1   
    83   82   83 1   
    84   82   85 1   
    85   82   94 1   
    86   83   84 2   
    87   83  102 1   
    88   85   86 1   
    89   85   95 1   
    90   85   96 1   
    91   86   87 ar  
    92   86   88 ar  
    93   87   89 ar  
    94   87   97 1   
    95   88   90 ar  
    96   88   98 1   
    97   89   91 ar  
    98   89   99 1   
    99   90   91 ar  
   100   90  100 1   
   101   91   92 1   
   102   92  101 1   
   103  102  103 1   
   104  102  110 1   
   105  103  104 1   
   106  103  106 1   
   107  103  111 1   
   108  104  105 2   
   109  104  121 1   
   110  106  107 1   
   111  106  108 1   
   112  106  112 1   
   113  107  109 1   
   114  107  113 1   
   115  107  114 1   
   116  108  115 1   
   117  108  116 1   
   118  108  117 1   
   119  109  118 1   
   120  109  119 1   
   121  109  120 1   
   122  121  122 1   
   123  121  127 1   
   124  122  123 1   
   125  122  125 1   
   126  122  128 1   
   127  123  124 2   
   128  123  132 1   
   129  125  126 1   
   130  125  129 1   
   131  125  130 1   
   132  126  131 1   
   133  132  133 1   
   134  132  137 1   
   135  133  134 1   
   136  133  136 1   
   137  133  138 1   
   138  134  135 2   
   139  134  142 1   
   140  136  139 1   
   141  136  140 1   
   142  136  141 1   
   143  142  143 1   
   144  142  147 1   
   145  143  144 1   
   146  143  146 1   
   147  143  148 1   
   148  144  145 2   
   149  144  152 1   
   150  146  149 1   
   151  146  150 1   
   152  146  151 1   
   153  152  153 1   
   154  152  161 1   
   155  153  154 1   
   156  153  156 1   
   157  153  162 1   
   158  154  155 2   
   159  154  167 1   
   160  156  157 1   
   161  156  163 1   
   162  156  164 1   
   163  157  158 1   
   164  157  165 1   
   165  157  166 1   
   166  158  159 1   
   167  158  160 1   
   168  167  168 1   
   169  167  172 1   
   170  168  169 1   
   171  168  170 1   
   172  168  171 1   
   173  174  175 1   
   174  174  176 1   
   175  177  178 1   
   176  177  179 1   
@<TRIPOS>SUBSTRUCTURE
     1 MOL         1 TEMP              0 ****  ****    0 ROOT
