@<TRIPOS>MOLECULE
MOL
  189   185     1     0     0
SMALL
resp


@<TRIPOS>ATOM
      1 C1         -0.7400    3.0030    5.7230 c3        1 MOL     -0.361143
      2 C2         -0.9430    2.3580    4.3460 c         1 MOL      0.873989
      3 O1         -0.0590    2.5620    3.4970 o         1 MOL     -0.659010
      4 H1          0.1910    3.5690    5.7250 hc        1 MOL      0.084384
      5 H2         -1.5730    3.6730    5.9380 hc        1 MOL      0.084384
      6 H3         -0.6920    2.2250    6.4850 hc        1 MOL      0.084384
      7 N1         -2.0450    1.7150    3.9700 n         1 MOL     -0.782358
      8 C3         -2.5660    1.6660    2.5850 c3        1 MOL      0.288188
      9 C4         -2.7110    3.1370    2.1590 c         1 MOL      0.418394
     10 O2         -3.4480    3.9050    2.7560 o         1 MOL     -0.567443
     11 C5         -3.8360    0.8030    2.4550 c3        1 MOL     -0.206967
     12 C6         -4.3750    0.6330    1.0280 c         1 MOL      0.696276
     13 O3         -5.5640    0.1900    0.9070 o         1 MOL     -0.633088
     14 O4         -3.5940    0.8040    0.0610 o         1 MOL     -0.633088
     15 H4         -2.7200    1.4740    4.6750 hn        1 MOL      0.350530
     16 H5         -1.8060    1.1850    1.9740 h1        1 MOL     -0.038904
     17 H6         -4.6140    1.2610    3.0570 hc        1 MOL      0.048480
     18 H7         -3.5930   -0.2000    2.8080 hc        1 MOL      0.048480
     19 N2         -2.0860    3.5290    1.0140 n         1 MOL     -0.107786
     20 C7         -2.2630    4.8700    0.4170 c3        1 MOL     -0.009117
     21 C8         -3.0610    4.8470   -0.8760 c         1 MOL      0.603842
     22 O5         -3.3120    5.9690   -1.3650 o         1 MOL     -0.576043
     23 C9         -0.8350    5.4330   -0.0010 c3        1 MOL     -0.195241
     24 C10         0.2270    5.4980    1.0960 c3        1 MOL      0.047430
     25 C11        -0.3560    6.3640    2.2050 c3        1 MOL     -0.111789
     26 C12         0.6810    6.8110    3.2780 c3        1 MOL     -0.047931
     27 N3          0.0530    7.3770    4.4780 n4        1 MOL     -0.283360
     28 H8         -1.6460    2.7850    0.4940 hn        1 MOL      0.222339
     29 H9         -2.7870    5.6230    1.0130 h1        1 MOL      0.039625
     30 H10        -0.9890    6.4450   -0.3660 hc        1 MOL      0.068355
     31 H11        -0.4510    4.7300   -0.7550 hc        1 MOL      0.068355
     32 H12         1.1110    5.9730    0.6640 hc        1 MOL      0.031741
     33 H13         0.5480    4.5230    1.4600 hc        1 MOL      0.031741
     34 H14        -1.2030    5.8960    2.7020 hc        1 MOL      0.074330
     35 H15        -0.5410    7.3210    1.7240 hc        1 MOL      0.074330
     36 H16         1.3910    7.5260    2.8530 hx        1 MOL      0.098264
     37 H17         1.1220    5.9160    3.7210 hx        1 MOL      0.098264
     38 H18        -0.4230    8.2300    4.2590 hn        1 MOL      0.305543
     39 H19        -0.5020    6.6950    4.9730 hn        1 MOL      0.305543
     40 H20         0.6820    7.6950    5.2000 hn        1 MOL      0.305543
     41 N4         -3.4940    3.6710   -1.4220 n         1 MOL     -0.488585
     42 C13        -4.1040    3.7040   -2.7700 c3        1 MOL     -0.051433
     43 C14        -5.3610    2.8560   -3.0330 c         1 MOL      0.469160
     44 O6         -5.6110    2.4010   -4.1540 o         1 MOL     -0.480624
     45 C15        -3.0360    3.4230   -3.8080 c3        1 MOL      0.066465
     46 C16        -2.3020    2.0840   -3.6330 c         1 MOL      0.722410
     47 O7         -2.5410    1.2990   -2.6950 o         1 MOL     -0.688284
     48 O8         -1.5300    1.8210   -4.6010 o         1 MOL     -0.688284
     49 H21        -3.3820    2.7660   -0.9960 hn        1 MOL      0.187267
     50 H22        -4.5580    4.6610   -3.0120 h1        1 MOL      0.082804
     51 H23        -2.2330    4.1610   -3.7820 hc        1 MOL     -0.011959
     52 H24        -3.4220    3.6110   -4.8080 hc        1 MOL     -0.011959
     53 N5         -6.0290    2.5050   -1.9300 n         1 MOL     -0.194339
     54 C17        -7.3480    1.9350   -1.7500 c3        1 MOL     -0.225012
     55 C18        -7.4570    0.5030   -2.2290 c         1 MOL      0.688872
     56 O9         -8.1930    0.2350   -3.1700 o         1 MOL     -0.591601
     57 H25        -5.6630    2.7680   -1.0280 hn        1 MOL      0.226041
     58 H26        -8.1110    2.5320   -2.2600 h1        1 MOL      0.081579
     59 H27        -7.5900    1.8830   -0.6900 h1        1 MOL      0.081579
     60 N6         -6.7840   -0.4490   -1.6120 n         1 MOL     -0.466612
     61 C19        -6.7650   -1.8870   -2.0020 c3        1 MOL      0.110853
     62 C20        -6.8200   -2.8940   -0.8290 c         1 MOL      0.392354
     63 O10        -6.8870   -4.1610   -0.9360 o         1 MOL     -0.522498
     64 C21        -5.6180   -2.1860   -2.9600 c3        1 MOL     -0.354131
     65 C22        -4.2580   -1.8970   -2.3960 c         1 MOL      0.785188
     66 O11        -3.2850   -1.6030   -3.1670 o         1 MOL     -0.712502
     67 O12        -3.9590   -2.0050   -1.1530 o         1 MOL     -0.712502
     68 H28        -6.2330   -0.2000   -0.7970 hn        1 MOL      0.203487
     69 H29        -7.7190   -2.0410   -2.4910 h1        1 MOL      0.086075
     70 H30        -5.7610   -1.5330   -3.8240 hc        1 MOL      0.123727
     71 H31        -5.6600   -3.2370   -3.2340 hc        1 MOL      0.123727
     72 N7         -6.7100   -2.3860    0.4040 n         1 MOL     -0.298590
     73 C23        -6.6360   -3.0930    1.6740 c3        1 MOL      0.013025
     74 C24        -5.3760   -3.8660    1.9420 c         1 MOL      0.439134
     75 O13        -5.3160   -4.7970    2.7900 o         1 MOL     -0.572426
     76 H32        -6.5460   -1.3940    0.5010 hn        1 MOL      0.230720
     77 H33        -7.4750   -3.7540    1.9000 h1        1 MOL      0.057231
     78 H34        -6.6170   -2.2870    2.4090 h1        1 MOL      0.057231
     79 N8         -4.2920   -3.4950    1.2630 n         1 MOL     -0.105609
     80 C25        -2.9120   -4.1890    1.3260 c3        1 MOL     -0.203017
     81 C26        -1.7240   -3.2570    1.3300 c         1 MOL      0.472098
     82 O14        -1.7860   -2.1330    0.9020 o         1 MOL     -0.543254
     83 C27        -2.7680   -5.1570    0.1200 c3        1 MOL      0.498731
     84 C28        -3.6650   -6.3770    0.3300 c3        1 MOL     -0.399826
     85 O15        -3.1790   -4.6280   -1.0840 oh        1 MOL     -0.618505
     86 H35        -4.3520   -2.7300    0.6050 hn        1 MOL      0.131463
     87 H36        -2.9520   -4.7360    2.2750 h1        1 MOL      0.109272
     88 H37        -1.7710   -5.5840    0.0570 h1        1 MOL     -0.015633
     89 H38        -3.8060   -3.9310   -0.8550 ho        1 MOL      0.394577
     90 H39        -3.5050   -6.7300    1.3440 hc        1 MOL      0.093303
     91 H40        -4.6860   -6.1160    0.0790 hc        1 MOL      0.093303
     92 H41        -3.2960   -7.1640   -0.3360 hc        1 MOL      0.093303
     93 N9         -0.5770   -3.7680    1.8480 n         1 MOL     -0.521167
     94 C29         0.6390   -2.9660    1.9590 c3        1 MOL      0.065087
     95 C30         1.7460   -3.6390    1.1440 c         1 MOL      0.428919
     96 O16         2.2060   -4.7490    1.3640 o         1 MOL     -0.511537
     97 C31         0.9330   -2.9020    3.4660 c3        1 MOL      0.054453
     98 C32         0.0700   -1.7300    3.9950 c3        1 MOL      0.028526
     99 C33         2.4380   -2.6060    3.5960 c3        1 MOL     -0.178321
    100 C34         0.2580   -1.5970    5.4800 c3        1 MOL     -0.343403
    101 H42        -0.6100   -4.7120    2.1820 hn        1 MOL      0.305132
    102 H43         0.4140   -1.9550    1.6280 h1        1 MOL      0.037789
    103 H44         0.6530   -3.8340    3.9490 hc        1 MOL      0.044056
    104 H45        -0.9750   -1.9950    3.8510 hc        1 MOL      0.082192
    105 H46         0.3660   -0.7780    3.5620 hc        1 MOL      0.082192
    106 H47         2.8120   -1.8480    2.9010 hc        1 MOL      0.041585
    107 H48         2.6950   -2.4030    4.6330 hc        1 MOL      0.041585
    108 H49         2.9470   -3.5680    3.4560 hc        1 MOL      0.041585
    109 H50         0.2870   -2.5970    5.9270 hc        1 MOL      0.075065
    110 H51         1.1610   -1.0310    5.7260 hc        1 MOL      0.075065
    111 H52        -0.5740   -1.0290    5.8950 hc        1 MOL      0.075065
    112 N10         2.2340   -2.8050    0.1520 n         1 MOL     -0.282130
    113 C35         3.4300   -3.0180   -0.7300 c3        1 MOL     -0.067978
    114 C36         4.7490   -2.6510   -0.0640 c         1 MOL      0.473534
    115 O17         4.7120   -1.8600    0.8810 o         1 MOL     -0.356067
    116 C37         3.2400   -2.2420   -2.0360 c3        1 MOL      0.332781
    117 C38         2.0650   -2.8090   -2.8280 c3        1 MOL     -0.423530
    118 O18         2.9860   -0.8620   -1.9600 oh        1 MOL     -0.554677
    119 H53         1.7690   -1.9170    0.1190 hn        1 MOL      0.284220
    120 H54         3.5680   -4.0740   -0.9630 h1        1 MOL      0.084141
    121 H55         4.1690   -2.3960   -2.5970 h1        1 MOL     -0.019965
    122 H56         2.1310   -0.8010   -1.5360 ho        1 MOL      0.344281
    123 H57         1.9970   -2.1970   -3.7280 hc        1 MOL      0.105880
    124 H58         2.1730   -3.8690   -3.0480 hc        1 MOL      0.105880
    125 H59         1.1360   -2.6550   -2.2670 hc        1 MOL      0.105880
    126 N11         5.9080   -2.9870   -0.6770 n         1 MOL     -0.432353
    127 C39         7.2370   -2.5540   -0.1910 c3        1 MOL     -0.008899
    128 C40         7.3090   -1.0400   -0.0350 c         1 MOL      0.306029
    129 O19         7.6970   -0.6320    1.0090 o         1 MOL     -0.477148
    130 C41         8.2380   -2.9840   -1.2380 c3        1 MOL      0.377731
    131 C42         9.6180   -2.4490   -1.0290 c3        1 MOL     -0.286776
    132 O20         8.3610   -4.3880   -1.2270 oh        1 MOL     -0.615012
    133 H60         5.9580   -3.6650   -1.4250 hn        1 MOL      0.243279
    134 H61         7.4050   -2.9910    0.8050 h1        1 MOL      0.159776
    135 H62         7.9570   -2.7220   -2.2540 h1        1 MOL     -0.043390
    136 H63         8.6170   -4.6420   -2.1180 ho        1 MOL      0.399705
    137 H64        10.3320   -2.9680   -1.6640 hc        1 MOL      0.077965
    138 H65         9.7440   -1.3830   -1.2060 hc        1 MOL      0.077965
    139 H66         9.8960   -2.6760   -0.0050 hc        1 MOL      0.077965
    140 N12         6.8400   -0.2990   -1.0180 n         1 MOL     -0.169759
    141 C43         6.7780    1.1850   -0.9600 c3        1 MOL      0.027909
    142 C44         5.8920    1.7610    0.1060 c         1 MOL      0.340667
    143 O21         6.0820    2.9050    0.5010 o         1 MOL     -0.536119
    144 C45         6.3760    1.6900   -2.3700 c3        1 MOL     -0.022543
    145 C46         7.6060    1.6510   -3.2560 c3        1 MOL      0.032602
    146 C47         7.1520    1.7520   -4.6600 c3        1 MOL      0.128096
    147 C48         8.2530    2.1770   -5.6970 c3        1 MOL     -0.097376
    148 N13         8.7500    3.5480   -5.5360 n4        1 MOL     -0.055688
    149 H67         6.5070   -0.7110   -1.8770 hn        1 MOL      0.220445
    150 H68         7.7820    1.5360   -0.7490 h1        1 MOL      0.074877
    151 H69         5.9270    2.6720   -2.2560 hc        1 MOL      0.035821
    152 H70         5.6520    1.0000   -2.8080 hc        1 MOL      0.035821
    153 H71         8.1870    0.7520   -3.0500 hc        1 MOL     -0.040009
    154 H72         8.1120    2.5760   -2.9900 hc        1 MOL     -0.040009
    155 H73         6.2230    2.2890   -4.8380 hc        1 MOL      0.012841
    156 H74         6.9890    0.7020   -4.9090 hc        1 MOL      0.012841
    157 H75         7.8190    2.1330   -6.6970 hx        1 MOL      0.083837
    158 H76         9.1400    1.5660   -5.5380 hx        1 MOL      0.083837
    159 H77         8.0880    4.0920   -5.0110 hn        1 MOL      0.230092
    160 H78         9.5790    3.6080   -4.9630 hn        1 MOL      0.230092
    161 H79         9.0860    4.0170   -6.3670 hn        1 MOL      0.230092
    162 N14         4.9000    1.0550    0.5300 n         1 MOL     -0.052299
    163 C49         4.0990    1.4170    1.7570 c3        1 MOL     -0.121124
    164 C50         4.6090    0.9460    3.1360 c         1 MOL      0.489433
    165 O22         4.4310    1.5980    4.1770 o         1 MOL     -0.547478
    166 C51         2.7030    0.7440    1.5610 c3        1 MOL      0.132937
    167 C52         1.9940    1.5250    0.4320 c3        1 MOL     -0.137032
    168 C53         0.6880    0.6830    0.0890 c         1 MOL      0.807071
    169 O23         0.7430   -0.5280   -0.2040 o         1 MOL     -0.754151
    170 O24        -0.4230    1.3220   -0.0530 o         1 MOL     -0.754151
    171 H80         4.6960    0.1810    0.0900 hn        1 MOL      0.045976
    172 H81         4.0550    2.5060    1.8100 h1        1 MOL      0.099763
    173 H82         2.1980    0.7350    2.5230 hc        1 MOL      0.005375
    174 H83         2.7430   -0.2880    1.1990 hc        1 MOL      0.005375
    175 H84         2.5810    1.4970   -0.4870 hc        1 MOL      0.013918
    176 H85         1.6580    2.5000    0.7820 hc        1 MOL      0.013918
    177 N15         5.4000   -0.2030    3.1870 n         1 MOL     -0.145667
    178 C54         5.9420   -0.8250    4.3550 c3        1 MOL     -0.256163
    179 H86         6.9170   -0.3920    4.5770 h1        1 MOL      0.098222
    180 H87         5.2720   -0.6600    5.1990 h1        1 MOL      0.098222
    181 H88         6.0510   -1.8950    4.1810 h1        1 MOL      0.098222
    182 H89         5.4120   -0.7670    2.3590 hn        1 MOL      0.153562
    183 Ca1        -1.7450   -0.5530   -1.1570 Ca        1 MOL      1.748587
    184 O25        -0.2920   -0.4520   -3.3470 oh        1 MOL     -0.817253
    185 H90        -0.1990   -1.2510   -3.8590 ho        1 MOL      0.390851
    186 H91        -0.3360    0.2500   -4.0000 ho        1 MOL      0.390851
    187 O26        -1.0290   -2.9930   -2.0860 oh        1 MOL     -0.817253
    188 H92        -1.8960   -3.4070   -2.0190 ho        1 MOL      0.390851
    189 H93        -0.5000   -3.6160   -2.5830 ho        1 MOL      0.390851
@<TRIPOS>BOND
     1    1    2 1   
     2    1    4 1   
     3    1    5 1   
     4    1    6 1   
     5    2    3 2   
     6    2    7 1   
     7    7    8 1   
     8    7   15 1   
     9    8    9 1   
    10    8   11 1   
    11    8   16 1   
    12    9   10 2   
    13    9   19 1   
    14   11   12 1   
    15   11   17 1   
    16   11   18 1   
    17   12   13 1   
    18   12   14 1   
    19   19   20 1   
    20   19   28 1   
    21   20   21 1   
    22   20   23 1   
    23   20   29 1   
    24   21   22 2   
    25   21   41 1   
    26   23   24 1   
    27   23   30 1   
    28   23   31 1   
    29   24   25 1   
    30   24   32 1   
    31   24   33 1   
    32   25   26 1   
    33   25   34 1   
    34   25   35 1   
    35   26   27 1   
    36   26   36 1   
    37   26   37 1   
    38   27   38 1   
    39   27   39 1   
    40   27   40 1   
    41   41   42 1   
    42   41   49 1   
    43   42   43 1   
    44   42   45 1   
    45   42   50 1   
    46   43   44 2   
    47   43   53 1   
    48   45   46 1   
    49   45   51 1   
    50   45   52 1   
    51   46   47 1   
    52   46   48 1   
    53   53   54 1   
    54   53   57 1   
    55   54   55 1   
    56   54   58 1   
    57   54   59 1   
    58   55   56 2   
    59   55   60 1   
    60   60   61 1   
    61   60   68 1   
    62   61   62 1   
    63   61   64 1   
    64   61   69 1   
    65   62   63 2   
    66   62   72 1   
    67   64   65 1   
    68   64   70 1   
    69   64   71 1   
    70   65   66 1   
    71   65   67 1   
    72   72   73 1   
    73   72   76 1   
    74   73   74 1   
    75   73   77 1   
    76   73   78 1   
    77   74   75 2   
    78   74   79 1   
    79   79   80 1   
    80   79   86 1   
    81   80   81 1   
    82   80   83 1   
    83   80   87 1   
    84   81   82 2   
    85   81   93 1   
    86   83   84 1   
    87   83   85 1   
    88   83   88 1   
    89   84   90 1   
    90   84   91 1   
    91   84   92 1   
    92   85   89 1   
    93   93   94 1   
    94   93  101 1   
    95   94   95 1   
    96   94   97 1   
    97   94  102 1   
    98   95   96 2   
    99   95  112 1   
   100   97   98 1   
   101   97   99 1   
   102   97  103 1   
   103   98  100 1   
   104   98  104 1   
   105   98  105 1   
   106   99  106 1   
   107   99  107 1   
   108   99  108 1   
   109  100  109 1   
   110  100  110 1   
   111  100  111 1   
   112  112  113 1   
   113  112  119 1   
   114  113  114 1   
   115  113  116 1   
   116  113  120 1   
   117  114  115 2   
   118  114  126 1   
   119  116  117 1   
   120  116  118 1   
   121  116  121 1   
   122  117  123 1   
   123  117  124 1   
   124  117  125 1   
   125  118  122 1   
   126  126  127 1   
   127  126  133 1   
   128  127  128 1   
   129  127  130 1   
   130  127  134 1   
   131  128  129 2   
   132  128  140 1   
   133  130  131 1   
   134  130  132 1   
   135  130  135 1   
   136  131  137 1   
   137  131  138 1   
   138  131  139 1   
   139  132  136 1   
   140  140  141 1   
   141  140  149 1   
   142  141  142 1   
   143  141  144 1   
   144  141  150 1   
   145  142  143 2   
   146  142  162 1   
   147  144  145 1   
   148  144  151 1   
   149  144  152 1   
   150  145  146 1   
   151  145  153 1   
   152  145  154 1   
   153  146  147 1   
   154  146  155 1   
   155  146  156 1   
   156  147  148 1   
   157  147  157 1   
   158  147  158 1   
   159  148  159 1   
   160  148  160 1   
   161  148  161 1   
   162  162  163 1   
   163  162  171 1   
   164  163  164 1   
   165  163  166 1   
   166  163  172 1   
   167  164  165 2   
   168  164  177 1   
   169  166  167 1   
   170  166  173 1   
   171  166  174 1   
   172  167  168 1   
   173  167  175 1   
   174  167  176 1   
   175  168  169 1   
   176  168  170 1   
   177  177  178 1   
   178  177  182 1   
   179  178  179 1   
   180  178  180 1   
   181  178  181 1   
   182  184  185 1   
   183  184  186 1   
   184  187  188 1   
   185  187  189 1   
@<TRIPOS>SUBSTRUCTURE
     1 MOL         1 TEMP              0 ****  ****    0 ROOT
