@<TRIPOS>MOLECULE
MOL
  172   171     1     0     0
SMALL
resp


@<TRIPOS>ATOM
      1 C1         -0.1930    3.5370    5.8210 c3        1 MOL     -0.367228
      2 C2         -0.6170    3.4230    4.3420 c         1 MOL      0.722671
      3 O1          0.0580    4.0020    3.4730 o         1 MOL     -0.569852
      4 H1          0.8580    3.8210    5.8770 hc        1 MOL      0.088663
      5 H2         -0.8010    4.2940    6.3160 hc        1 MOL      0.088663
      6 H3         -0.3360    2.5760    6.3150 hc        1 MOL      0.088663
      7 N1         -1.7550    2.7990    4.0740 n         1 MOL     -0.707964
      8 C3         -2.0520    2.4420    2.6650 c3        1 MOL      0.478175
      9 C4         -2.4050    3.6720    1.9030 c         1 MOL      0.519430
     10 O2         -3.2900    4.4110    2.3400 o         1 MOL     -0.618616
     11 C5         -2.9520    1.2530    2.7080 c3        1 MOL     -0.394093
     12 C6         -3.4540    0.7350    1.3620 c         1 MOL      0.736433
     13 O3         -3.1010    1.2980    0.2830 o         1 MOL     -0.691208
     14 O4         -4.3500   -0.1640    1.3000 o         1 MOL     -0.691208
     15 H4         -2.2090    2.4450    4.8950 hn        1 MOL      0.331957
     16 H5         -1.1150    2.1240    2.2020 h1        1 MOL     -0.024672
     17 H6         -3.8300    1.4410    3.3160 hc        1 MOL      0.084837
     18 H7         -2.3180    0.4520    3.1020 hc        1 MOL      0.084837
     19 N2         -1.7530    3.9640    0.7780 n         1 MOL     -0.292271
     20 C7         -1.7080    5.2640    0.1250 c3        1 MOL      0.007217
     21 C8         -2.5230    5.2130   -1.1880 c         1 MOL      0.386905
     22 O5         -2.5250    6.2110   -1.8930 o         1 MOL     -0.554812
     23 C9         -0.2230    5.6820   -0.0710 c3        1 MOL     -0.082898
     24 H8         -1.0200    3.3150    0.5240 hn        1 MOL      0.295122
     25 H9         -2.0700    6.0330    0.8040 h1        1 MOL      0.089820
     26 H10         0.2830    5.1350   -0.8680 hc        1 MOL      0.028346
     27 H11        -0.1310    6.7290   -0.3630 hc        1 MOL      0.028346
     28 H12         0.3720    5.6120    0.8310 hc        1 MOL      0.028346
     29 N3         -3.1420    4.0640   -1.5100 n         1 MOL     -0.029511
     30 C10        -4.3580    3.9300   -2.3770 c3        1 MOL      0.038484
     31 C11        -5.6620    3.4780   -1.5500 c         1 MOL      0.397196
     32 O6         -6.8200    3.6710   -2.0790 o         1 MOL     -0.551125
     33 C12        -4.0110    3.0060   -3.5890 c3        1 MOL     -0.091150
     34 C13        -3.5270    1.5830   -3.1760 c         1 MOL      0.719624
     35 O7         -4.1710    0.9200   -2.3070 o         1 MOL     -0.722014
     36 O8         -2.5350    1.0470   -3.6420 o         1 MOL     -0.722014
     37 H13        -2.9330    3.2610   -0.9330 hn        1 MOL     -0.055220
     38 H14        -4.6020    4.8780   -2.8690 h1        1 MOL      0.057210
     39 H15        -3.1710    3.5200   -4.0540 hc        1 MOL      0.025240
     40 H16        -4.8240    2.9590   -4.3190 hc        1 MOL      0.025240
     41 N4         -5.4900    2.7910   -0.4250 n         1 MOL     -0.341157
     42 C14        -6.5580    2.2770    0.3890 c3        1 MOL      0.132983
     43 C15        -7.0850    0.9180    0.0050 c         1 MOL      0.364493
     44 O9         -8.2430    0.6840    0.4360 o         1 MOL     -0.598081
     45 H17        -4.6440    2.2500   -0.3440 hn        1 MOL      0.197096
     46 H18        -7.3740    2.9840    0.4730 h1        1 MOL      0.052702
     47 H19        -6.3020    2.2530    1.4510 h1        1 MOL      0.052702
     48 N5         -6.4150    0.0940   -0.8400 n         1 MOL     -0.118225
     49 C16        -6.9740   -1.1510   -1.3980 c3        1 MOL     -0.058083
     50 C17        -6.9340   -2.2580   -0.3410 c         1 MOL      0.433633
     51 O10        -7.3650   -3.3730   -0.6080 o         1 MOL     -0.565288
     52 C18        -6.2090   -1.5200   -2.6470 c3        1 MOL     -0.297165
     53 C19        -4.7420   -1.9330   -2.4480 c         1 MOL      0.613581
     54 N6         -4.0780   -2.4040   -3.4850 n         1 MOL     -0.746264
     55 O11        -4.2070   -1.9500   -1.3710 o         1 MOL     -0.377877
     56 H20        -5.5120    0.4030   -1.1760 hn        1 MOL      0.196152
     57 H21        -8.0300   -0.9820   -1.6180 h1        1 MOL      0.122836
     58 H22        -6.1600   -0.6460   -3.2970 hc        1 MOL      0.101893
     59 H23        -6.6990   -2.3130   -3.2000 hc        1 MOL      0.101893
     60 H24        -4.5790   -2.6740   -4.3240 hn        1 MOL      0.327011
     61 H25        -3.2050   -2.8860   -3.3620 hn        1 MOL      0.327011
     62 N7         -6.4080   -2.1040    0.8910 n         1 MOL     -0.195434
     63 C20        -6.4870   -3.0830    1.9490 c3        1 MOL     -0.196614
     64 C21        -5.1870   -3.9240    2.0200 c         1 MOL      0.508811
     65 O12        -5.0670   -4.9290    2.7110 o         1 MOL     -0.597316
     66 H26        -5.8990   -1.2550    1.0870 hn        1 MOL      0.249036
     67 H27        -7.2910   -3.7790    1.7220 h1        1 MOL      0.109808
     68 H28        -6.7030   -2.6150    2.9120 h1        1 MOL      0.109808
     69 N8         -4.1810   -3.6270    1.1740 n         1 MOL     -0.097339
     70 C22        -2.8690   -4.3220    1.1510 c3        1 MOL     -0.225420
     71 C23        -1.7610   -3.2180    1.1070 c         1 MOL      0.650908
     72 O13        -1.9350   -2.3130    0.2930 o         1 MOL     -0.547614
     73 C24        -2.7870   -5.2020   -0.0590 c3        1 MOL      0.582225
     74 C25        -1.4000   -5.8750   -0.1560 c3        1 MOL     -0.292151
     75 O14        -3.7590   -6.2120   -0.1300 oh        1 MOL     -0.647933
     76 H29        -4.2340   -2.7830    0.6200 hn        1 MOL     -0.005370
     77 H30        -2.7880   -5.0150    1.9890 h1        1 MOL      0.095013
     78 H31        -2.9640   -4.5530   -0.9140 h1        1 MOL     -0.106547
     79 H32        -4.6010   -5.7650   -0.2680 ho        1 MOL      0.394027
     80 H33        -1.4920   -6.4460   -1.0750 hc        1 MOL      0.064125
     81 H34        -0.5740   -5.2200   -0.4260 hc        1 MOL      0.064125
     82 H35        -1.2500   -6.6210    0.6270 hc        1 MOL      0.064125
     83 N9         -0.5850   -3.4870    1.6890 n         1 MOL     -0.609977
     84 C26         0.6990   -2.7050    1.6070 c3        1 MOL      0.065705
     85 C27         1.3290   -3.0020    0.2330 c         1 MOL      0.479770
     86 O15         1.7220   -4.1200   -0.0740 o         1 MOL     -0.598399
     87 C28         1.5690   -3.0290    2.8760 c3        1 MOL      0.110218
     88 C29         0.8100   -2.3920    4.0830 c3        1 MOL      0.152247
     89 C30         3.0070   -2.5210    2.7060 c3        1 MOL     -0.139779
     90 C31         1.5450   -2.6440    5.4610 c3        1 MOL     -0.209696
     91 H36        -0.4650   -4.2940    2.2830 hn        1 MOL      0.297797
     92 H37         0.4960   -1.6250    1.6130 h1        1 MOL      0.105056
     93 H38         1.5910   -4.1090    2.9210 hc        1 MOL      0.002158
     94 H39        -0.1570   -2.8800    4.1000 hc        1 MOL     -0.029681
     95 H40         0.6660   -1.3340    3.8560 hc        1 MOL     -0.029681
     96 H41         3.6670   -2.8510    3.5100 hc        1 MOL      0.015556
     97 H42         3.4240   -2.7640    1.7270 hc        1 MOL      0.015556
     98 H43         3.0900   -1.4440    2.7750 hc        1 MOL      0.015556
     99 H44         0.8360   -2.4390    6.2630 hc        1 MOL      0.039679
    100 H45         1.7750   -3.7070    5.5180 hc        1 MOL      0.039679
    101 H46         2.4200   -2.0080    5.5890 hc        1 MOL      0.039679
    102 N10         1.7120   -1.9780   -0.4560 n         1 MOL     -0.149388
    103 C32         2.7450   -1.9480   -1.4960 c3        1 MOL      0.351042
    104 C33         4.0550   -1.4850   -0.8940 c         1 MOL      0.288633
    105 O16         4.0740   -0.9390    0.2030 o         1 MOL     -0.176721
    106 C34         2.4160   -0.9830   -2.6370 c3        1 MOL     -0.388575
    107 C35         1.0540   -1.2540   -3.2170 c         1 MOL      0.800143
    108 O17         0.9000   -2.3570   -3.6600 o         1 MOL     -0.711063
    109 O18         0.1200   -0.4430   -3.0310 o         1 MOL     -0.711063
    110 H47         1.4490   -1.1100   -0.0180 hn        1 MOL     -0.095107
    111 H48         2.8890   -2.9330   -1.9370 h1        1 MOL      0.015792
    112 H49         3.2190   -1.1150   -3.3620 hc        1 MOL      0.080565
    113 H50         2.3830    0.0760   -2.3360 hc        1 MOL      0.080565
    114 N11         5.1460   -1.7330   -1.5880 n         1 MOL     -0.678105
    115 C36         6.4570   -1.1810   -1.2580 c3        1 MOL      0.477997
    116 C37         6.6260    0.2650   -0.8210 c         1 MOL      0.269151
    117 O19         7.1510    0.4460    0.2740 o         1 MOL     -0.492361
    118 C38         7.6170   -1.6480   -2.2390 c3        1 MOL     -0.266013
    119 C39         9.1200   -1.4830   -1.6900 ca        1 MOL      0.148818
    120 C40        10.0570   -0.9000   -2.5250 ca        1 MOL     -0.218306
    121 C41         9.4870   -1.9100   -0.3450 ca        1 MOL     -0.218306
    122 C42        11.4140   -0.7680   -2.1460 ca        1 MOL     -0.027726
    123 C43        10.8550   -1.7650    0.0350 ca        1 MOL     -0.027726
    124 C44        11.7960   -1.2890   -0.9080 ca        1 MOL     -0.209236
    125 H51         5.0660   -2.2220   -2.4660 hn        1 MOL      0.347677
    126 H52         6.6700   -1.7190   -0.3310 h1        1 MOL      0.047492
    127 H53         7.5110   -1.0990   -3.1710 hc        1 MOL      0.066458
    128 H54         7.5090   -2.7200   -2.3670 hc        1 MOL      0.066458
    129 H55         9.6900   -0.4800   -3.4410 ha        1 MOL      0.128308
    130 H56         8.8290   -2.4430    0.3300 ha        1 MOL      0.128308
    131 H57        12.0730   -0.2510   -2.8330 ha        1 MOL      0.097017
    132 H58        11.1510   -2.1610    0.9960 ha        1 MOL      0.097017
    133 H59        12.8370   -1.1280   -0.6620 ha        1 MOL      0.113271
    134 N12         6.1630    1.2840   -1.5110 n         1 MOL     -0.083206
    135 C45         6.1470    2.6880   -0.9510 c3        1 MOL     -0.090096
    136 C46         5.2640    2.8740    0.2980 c         1 MOL      0.287265
    137 O20         5.4100    3.7260    1.2300 o         1 MOL     -0.504503
    138 C47         5.6360    3.5840   -2.1850 c3        1 MOL      0.023624
    139 C48         4.9230    2.5340   -3.0840 c3        1 MOL     -0.012524
    140 C49         5.6120    1.2230   -2.8380 c3        1 MOL     -0.004990
    141 H60         7.1810    2.9100   -0.6870 h1        1 MOL      0.105927
    142 H61         5.0370    4.4750   -1.9590 hc        1 MOL      0.024735
    143 H62         6.5140    3.9390   -2.7180 hc        1 MOL      0.024735
    144 H63         3.8760    2.5380   -2.7970 hc        1 MOL      0.034984
    145 H64         5.0630    2.8490   -4.1170 hc        1 MOL      0.034984
    146 H65         4.8980    0.4030   -2.8380 h1        1 MOL      0.010695
    147 H66         6.4030    1.0620   -3.5750 h1        1 MOL      0.010695
    148 N13         4.4360    1.8520    0.5090 n         1 MOL     -0.008278
    149 C50         3.7200    1.7500    1.8080 c3        1 MOL     -0.126096
    150 C51         4.5140    1.1010    2.9690 c         1 MOL      0.464285
    151 O21         4.3910    1.6370    4.0840 o         1 MOL     -0.553805
    152 C52         2.2460    1.1810    1.5360 c3        1 MOL      0.024479
    153 C53         1.3900    2.0140    0.6250 c3        1 MOL      0.070805
    154 C54         0.1920    1.3390   -0.0330 c         1 MOL      0.625834
    155 O22        -0.5170    1.8970   -0.9310 o         1 MOL     -0.696338
    156 O23        -0.0470    0.1680    0.1620 o         1 MOL     -0.696338
    157 H67         4.3530    1.1390   -0.2010 hn        1 MOL      0.123470
    158 H68         3.3350    2.7070    2.1640 h1        1 MOL      0.107175
    159 H69         1.7800    1.1440    2.5180 hc        1 MOL     -0.002123
    160 H70         2.3080    0.1260    1.2490 hc        1 MOL     -0.002123
    161 H71         1.9840    2.5100   -0.1410 hc        1 MOL     -0.024903
    162 H72         0.9670    2.7440    1.3180 hc        1 MOL     -0.024903
    163 N14         5.3390    0.0960    2.6990 n         1 MOL      0.009053
    164 C55         6.3080   -0.4560    3.6440 c3        1 MOL     -0.192103
    165 H73         7.2420    0.1020    3.5740 h1        1 MOL      0.073844
    166 H74         5.9130   -0.3770    4.6580 h1        1 MOL      0.073844
    167 H75         6.4920   -1.5030    3.4060 h1        1 MOL      0.073844
    168 H76         5.2810   -0.3480    1.7980 hn        1 MOL      0.006869
    169 Ca1        -2.0080   -0.2590   -1.4190 Ca        1 MOL      1.744172
    170 O24        -1.5470   -2.9140   -2.4730 oh        1 MOL     -0.813958
    171 H77        -0.7300   -2.7900   -2.9700 ho        1 MOL      0.398411
    172 H78        -1.5240   -3.8220   -2.1900 ho        1 MOL      0.398411
@<TRIPOS>BOND
     1    1    2 1   
     2    1    4 1   
     3    1    5 1   
     4    1    6 1   
     5    2    3 2   
     6    2    7 1   
     7    7    8 1   
     8    7   15 1   
     9    8    9 1   
    10    8   11 1   
    11    8   16 1   
    12    9   10 2   
    13    9   19 1   
    14   11   12 1   
    15   11   17 1   
    16   11   18 1   
    17   12   13 1   
    18   12   14 1   
    19   19   20 1   
    20   19   24 1   
    21   20   21 1   
    22   20   23 1   
    23   20   25 1   
    24   21   22 2   
    25   21   29 1   
    26   23   26 1   
    27   23   27 1   
    28   23   28 1   
    29   29   30 1   
    30   29   37 1   
    31   30   31 1   
    32   30   33 1   
    33   30   38 1   
    34   31   32 2   
    35   31   41 1   
    36   33   34 1   
    37   33   39 1   
    38   33   40 1   
    39   34   35 1   
    40   34   36 1   
    41   41   42 1   
    42   41   45 1   
    43   42   43 1   
    44   42   46 1   
    45   42   47 1   
    46   43   44 2   
    47   43   48 1   
    48   48   49 1   
    49   48   56 1   
    50   49   50 1   
    51   49   52 1   
    52   49   57 1   
    53   50   51 2   
    54   50   62 1   
    55   52   53 1   
    56   52   58 1   
    57   52   59 1   
    58   53   54 1   
    59   53   55 2   
    60   54   60 1   
    61   54   61 1   
    62   62   63 1   
    63   62   66 1   
    64   63   64 1   
    65   63   67 1   
    66   63   68 1   
    67   64   65 2   
    68   64   69 1   
    69   69   70 1   
    70   69   76 1   
    71   70   71 1   
    72   70   73 1   
    73   70   77 1   
    74   71   72 2   
    75   71   83 1   
    76   73   74 1   
    77   73   75 1   
    78   73   78 1   
    79   74   80 1   
    80   74   81 1   
    81   74   82 1   
    82   75   79 1   
    83   83   84 1   
    84   83   91 1   
    85   84   85 1   
    86   84   87 1   
    87   84   92 1   
    88   85   86 2   
    89   85  102 1   
    90   87   88 1   
    91   87   89 1   
    92   87   93 1   
    93   88   90 1   
    94   88   94 1   
    95   88   95 1   
    96   89   96 1   
    97   89   97 1   
    98   89   98 1   
    99   90   99 1   
   100   90  100 1   
   101   90  101 1   
   102  102  103 1   
   103  102  110 1   
   104  103  104 1   
   105  103  106 1   
   106  103  111 1   
   107  104  105 2   
   108  104  114 1   
   109  106  107 1   
   110  106  112 1   
   111  106  113 1   
   112  107  108 1   
   113  107  109 1   
   114  114  115 1   
   115  114  125 1   
   116  115  116 1   
   117  115  118 1   
   118  115  126 1   
   119  116  117 2   
   120  116  134 1   
   121  118  119 1   
   122  118  127 1   
   123  118  128 1   
   124  119  120 ar  
   125  119  121 ar  
   126  120  122 ar  
   127  120  129 1   
   128  121  123 ar  
   129  121  130 1   
   130  122  124 ar  
   131  122  131 1   
   132  123  124 ar  
   133  123  132 1   
   134  124  133 1   
   135  134  135 1   
   136  134  140 1   
   137  135  136 1   
   138  135  138 1   
   139  135  141 1   
   140  136  137 2   
   141  136  148 1   
   142  138  139 1   
   143  138  142 1   
   144  138  143 1   
   145  139  140 1   
   146  139  144 1   
   147  139  145 1   
   148  140  146 1   
   149  140  147 1   
   150  148  149 1   
   151  148  157 1   
   152  149  150 1   
   153  149  152 1   
   154  149  158 1   
   155  150  151 2   
   156  150  163 1   
   157  152  153 1   
   158  152  159 1   
   159  152  160 1   
   160  153  154 1   
   161  153  161 1   
   162  153  162 1   
   163  154  155 1   
   164  154  156 1   
   165  163  164 1   
   166  163  168 1   
   167  164  165 1   
   168  164  166 1   
   169  164  167 1   
   170  170  171 1   
   171  170  172 1   
@<TRIPOS>SUBSTRUCTURE
     1 MOL         1 TEMP              0 ****  ****    0 ROOT
