@<TRIPOS>MOLECULE
MOL
  183   181     1     0     0
SMALL
resp


@<TRIPOS>ATOM
      1 C1         -1.1570    1.9180    6.4010 c3        1 MOL     -0.255826
      2 C2         -1.3170    2.0950    4.8720 c         1 MOL      0.797887
      3 O1         -0.4970    2.6780    4.1960 o         1 MOL     -0.614448
      4 H1         -1.4710    2.8310    6.9070 hc        1 MOL      0.046197
      5 H2         -1.7750    1.0850    6.7380 hc        1 MOL      0.046197
      6 H3         -0.1120    1.7150    6.6370 hc        1 MOL      0.046197
      7 N1         -2.3520    1.4340    4.3810 n         1 MOL     -0.666829
      8 C3         -2.7600    1.3970    2.9250 c3        1 MOL      0.138463
      9 C4         -3.2790    2.7840    2.4420 c         1 MOL      0.597043
     10 O2         -4.1780    3.3610    3.0290 o         1 MOL     -0.570621
     11 C5         -3.9070    0.3570    2.7540 c3        1 MOL     -0.382852
     12 C6         -4.5520    0.4580    1.3500 c         1 MOL      0.702716
     13 O3         -5.7510    0.0770    1.1850 o         1 MOL     -0.612166
     14 O4         -3.7880    0.7610    0.4180 o         1 MOL     -0.612166
     15 H4         -2.8980    0.9510    5.0830 hn        1 MOL      0.345094
     16 H5         -1.9340    1.0470    2.3050 h1        1 MOL      0.046969
     17 H6         -4.6160    0.5620    3.5630 hc        1 MOL      0.091251
     18 H7         -3.5720   -0.6730    2.8170 hc        1 MOL      0.091251
     19 N2         -2.6490    3.4340    1.4460 n         1 MOL     -0.356054
     20 C7         -2.9300    4.7810    0.9630 c3        1 MOL     -0.201063
     21 C8         -4.1440    4.7540   -0.0210 c         1 MOL      0.575871
     22 O5         -4.9100    5.7260   -0.1270 o         1 MOL     -0.594971
     23 C9         -1.7180    5.4110    0.2340 c3        1 MOL      0.364760
     24 C10        -0.4980    5.3140    1.1890 c3        1 MOL      0.118174
     25 C11        -2.0340    6.7920   -0.2560 c3        1 MOL     -0.351663
     26 C12         0.7910    5.9110    0.6480 c3        1 MOL     -0.317133
     27 H8         -1.8420    2.9550    1.0640 hn        1 MOL      0.208328
     28 H9         -3.1480    5.3610    1.8650 h1        1 MOL      0.095306
     29 H10        -1.5320    4.7550   -0.6170 hc        1 MOL     -0.023136
     30 H11        -0.2570    4.3060    1.4950 hc        1 MOL     -0.022342
     31 H12        -0.7870    5.9020    2.0590 hc        1 MOL     -0.022342
     32 H13        -1.1680    7.2350   -0.7440 hc        1 MOL      0.065414
     33 H14        -2.8420    6.8450   -0.9840 hc        1 MOL      0.065414
     34 H15        -2.3360    7.4420    0.5660 hc        1 MOL      0.065414
     35 H16         0.9810    5.4280   -0.3180 hc        1 MOL      0.064190
     36 H17         0.8330    6.9860    0.4520 hc        1 MOL      0.064190
     37 H18         1.5960    5.5450    1.2750 hc        1 MOL      0.064190
     38 N3         -4.4500    3.5740   -0.5150 n         1 MOL     -0.251279
     39 C13        -5.3720    3.4710   -1.6730 c3        1 MOL     -0.140623
     40 C14        -6.8540    2.9910   -1.3250 c         1 MOL      0.512464
     41 O6         -7.8090    3.3800   -1.9790 o         1 MOL     -0.570545
     42 C15        -4.8220    2.4630   -2.7010 c3        1 MOL      0.143377
     43 C16        -3.3720    2.5850   -3.0060 c         1 MOL      0.618657
     44 O7         -2.4880    1.9590   -2.3070 o         1 MOL     -0.689804
     45 O8         -2.9830    3.2610   -4.0200 o         1 MOL     -0.689804
     46 H19        -3.9510    2.7460   -0.1990 hn        1 MOL      0.173396
     47 H20        -5.4160    4.4120   -2.2190 h1        1 MOL      0.106913
     48 H21        -5.3620    2.6540   -3.6320 hc        1 MOL     -0.047958
     49 H22        -5.0600    1.4190   -2.4630 hc        1 MOL     -0.047958
     50 N4         -7.0770    2.1710   -0.3230 n         1 MOL     -0.258923
     51 C17        -8.2940    1.3800   -0.0350 c3        1 MOL     -0.122469
     52 C18        -8.4650    0.1160   -0.9140 c         1 MOL      0.551019
     53 O9         -9.5990   -0.2540   -1.2160 o         1 MOL     -0.600050
     54 H23        -6.2240    1.8060    0.0810 hn        1 MOL      0.156144
     55 H24        -9.1590    2.0330   -0.1480 h1        1 MOL      0.078545
     56 H25        -8.2310    1.0530    1.0010 h1        1 MOL      0.078545
     57 N5         -7.3090   -0.6170   -1.1450 n         1 MOL     -0.221587
     58 C19        -7.2640   -1.8200   -1.8510 c3        1 MOL     -0.106431
     59 C20        -7.0960   -3.0480   -0.8850 c         1 MOL      0.385414
     60 O10        -7.1450   -4.1470   -1.4190 o         1 MOL     -0.526247
     61 C21        -6.1880   -1.7290   -2.8790 c3        1 MOL     -0.237669
     62 C22        -4.7690   -1.5520   -2.3170 c         1 MOL      0.751982
     63 O11        -3.9230   -1.0830   -3.0720 o         1 MOL     -0.749520
     64 O12        -4.4520   -1.9160   -1.1790 o         1 MOL     -0.749520
     65 H26        -6.5650   -0.3040   -0.5470 hn        1 MOL      0.194436
     66 H27        -8.1380   -1.9330   -2.4970 h1        1 MOL      0.134475
     67 H28        -6.5730   -1.0760   -3.6600 hc        1 MOL      0.082558
     68 H29        -6.1710   -2.7140   -3.3300 hc        1 MOL      0.082558
     69 N6         -6.8770   -2.8900    0.4350 n         1 MOL     -0.171410
     70 C23        -6.9220   -3.9330    1.5090 c3        1 MOL     -0.104825
     71 C24        -5.5930   -4.6260    1.5060 c         1 MOL      0.622148
     72 O13        -5.4190   -5.7670    1.9440 o         1 MOL     -0.600677
     73 H30        -6.6750   -1.9540    0.7790 hn        1 MOL      0.182742
     74 H31        -7.6540   -4.7400    1.4470 h1        1 MOL      0.071199
     75 H32        -7.0520   -3.4510    2.4760 h1        1 MOL      0.071199
     76 N7         -4.4720   -4.0070    0.9930 n         1 MOL     -0.381010
     77 C25        -3.1370   -4.5190    1.0360 c3        1 MOL      0.007941
     78 C26        -2.0840   -3.3520    1.2900 c         1 MOL      0.543126
     79 O14        -2.2950   -2.1720    0.9710 o         1 MOL     -0.593688
     80 C27        -2.9200   -5.4570   -0.1470 c3        1 MOL      0.045054
     81 C28        -3.2630   -4.8830   -1.5280 c3        1 MOL     -0.233258
     82 C29        -2.2000   -3.9040   -2.0740 c         1 MOL      0.677721
     83 N8         -1.4810   -4.2520   -3.1220 n         1 MOL     -0.812084
     84 O15        -1.8960   -2.7960   -1.5500 o         1 MOL     -0.598167
     85 H33        -4.5490   -3.3510    0.2340 hn        1 MOL      0.276539
     86 H34        -3.1550   -5.0400    1.9940 h1        1 MOL      0.055559
     87 H35        -3.4790   -6.3870   -0.0190 hc        1 MOL      0.001947
     88 H36        -1.8790   -5.7930   -0.1030 hc        1 MOL      0.001947
     89 H37        -4.2640   -4.4730   -1.4660 hc        1 MOL      0.092305
     90 H38        -3.2840   -5.7200   -2.2310 hc        1 MOL      0.092305
     91 H39        -1.7820   -4.9690   -3.7630 hn        1 MOL      0.369001
     92 H40        -0.7940   -3.5450   -3.3370 hn        1 MOL      0.369001
     93 N9         -0.9040   -3.6460    1.8420 n         1 MOL     -0.390016
     94 C30         0.3000   -2.8250    1.9270 c3        1 MOL      0.027298
     95 C31         1.5140   -3.3500    1.1750 c         1 MOL      0.518806
     96 O16         2.0440   -4.4020    1.5140 o         1 MOL     -0.569056
     97 C32         0.6570   -2.6280    3.4050 c3        1 MOL      0.290645
     98 C33         1.9610   -1.7840    3.5600 c3        1 MOL     -0.402934
     99 C34        -0.5050   -1.9670    4.2720 c3        1 MOL     -0.402934
    100 H41        -0.8850   -4.6270    2.0990 hn        1 MOL      0.236732
    101 H42         0.0570   -1.8160    1.5990 h1        1 MOL      0.121398
    102 H43         0.8350   -3.6250    3.8040 hc        1 MOL     -0.047905
    103 H44         2.6520   -2.2230    2.8350 hc        1 MOL      0.089792
    104 H45         1.9000   -0.7640    3.1770 hc        1 MOL      0.089792
    105 H46         2.3570   -1.7220    4.5690 hc        1 MOL      0.089792
    106 H47        -1.4140   -2.5690    4.1950 hc        1 MOL      0.089792
    107 H48        -0.1610   -1.8080    5.2930 hc        1 MOL      0.089792
    108 H49        -0.6100   -0.9610    3.8680 hc        1 MOL      0.089792
    109 N10         1.9320   -2.6160    0.1250 n         1 MOL     -0.374754
    110 C35         3.0870   -2.9030   -0.8220 c3        1 MOL      0.148483
    111 C36         4.2880   -2.1770   -0.3040 c         1 MOL      0.490930
    112 O17         4.1510   -1.3710    0.5690 o         1 MOL     -0.298007
    113 C37         2.8350   -2.6640   -2.3680 c3        1 MOL     -0.483850
    114 C38         3.1500   -1.2390   -2.8260 c         1 MOL      0.568293
    115 N11         2.3660   -0.2640   -2.5510 n         1 MOL     -0.697927
    116 O18         4.2700   -1.0240   -3.3090 o         1 MOL     -0.547446
    117 H50         1.4540   -1.7600   -0.0970 hn        1 MOL      0.165982
    118 H51         3.3590   -3.9620   -0.6970 h1        1 MOL      0.046254
    119 H52         1.8040   -2.8660   -2.6610 hc        1 MOL      0.159740
    120 H53         3.3550   -3.4170   -2.9660 hc        1 MOL      0.159740
    121 H54         1.4650   -0.3820   -2.1020 hn        1 MOL      0.384328
    122 H55         2.7150    0.6320   -2.8600 hn        1 MOL      0.384328
    123 N12         5.5010   -2.4930   -0.8600 n         1 MOL     -0.596113
    124 C39         6.7420   -2.0710   -0.2810 c3        1 MOL      0.281613
    125 C40         6.8250   -0.5450   -0.1470 c         1 MOL      0.567731
    126 O19         7.0200    0.0090    0.9240 o         1 MOL     -0.574646
    127 C41         8.0580   -2.5740   -0.9390 c3        1 MOL     -0.227375
    128 C42         9.3450   -2.0180   -0.3480 ca        1 MOL      0.116332
    129 C43         9.8360   -2.5100    0.8780 ca        1 MOL     -0.282764
    130 C44         9.9410   -0.9810   -1.0370 ca        1 MOL     -0.282764
    131 C45        10.9250   -1.7960    1.4200 ca        1 MOL     -0.089402
    132 C46        10.9610   -0.2490   -0.5220 ca        1 MOL     -0.089402
    133 C47        11.5100   -0.7510    0.6770 ca        1 MOL      0.175025
    134 O20        12.5000   -0.0550    1.3190 oh        1 MOL     -0.519420
    135 H56         5.5830   -2.9840   -1.7440 hn        1 MOL      0.292631
    136 H57         6.7330   -2.4520    0.7370 h1        1 MOL      0.010918
    137 H58         8.0800   -2.3310   -2.0040 hc        1 MOL      0.078579
    138 H59         7.9660   -3.6570   -0.8620 hc        1 MOL      0.078579
    139 H60         9.3900   -3.3790    1.3540 ha        1 MOL      0.158291
    140 H61         9.5280   -0.6540   -1.9730 ha        1 MOL      0.158291
    141 H62        11.1730   -2.0010    2.4560 ha        1 MOL      0.121059
    142 H63        11.4280    0.6160   -0.9770 ha        1 MOL      0.121059
    143 H64        12.7100    0.7120    0.7830 ho        1 MOL      0.387351
    144 N13         6.3540    0.1930   -1.1010 n         1 MOL     -0.358260
    145 C48         6.3640    1.7000   -1.1020 c3        1 MOL      0.067150
    146 C49         5.5410    2.2940    0.0220 c         1 MOL      0.286773
    147 O21         5.6770    3.4830    0.3690 o         1 MOL     -0.540751
    148 C50         6.0280    2.2000   -2.4750 c3        1 MOL     -0.093955
    149 C51         7.0430    1.8470   -3.5040 c3        1 MOL     -0.137284
    150 C52         6.6950    2.3990   -4.9070 c         1 MOL      0.671119
    151 O22         7.6110    2.8420   -5.5950 o         1 MOL     -0.721743
    152 O23         5.5650    2.1010   -5.3530 o         1 MOL     -0.721743
    153 H65         6.0870   -0.3350   -1.9250 hn        1 MOL      0.195264
    154 H66         7.3900    2.0170   -0.9190 h1        1 MOL      0.079263
    155 H67         5.8840    3.2850   -2.4140 hc        1 MOL      0.048022
    156 H68         5.0800    1.6960   -2.6600 hc        1 MOL      0.048022
    157 H69         7.0850    0.7670   -3.6000 hc        1 MOL      0.017314
    158 H70         8.0680    2.0550   -3.1750 hc        1 MOL      0.017314
    159 N14         4.5720    1.5570    0.5480 n         1 MOL     -0.021780
    160 C53         3.6730    2.0330    1.6220 c3        1 MOL     -0.132273
    161 C54         4.2780    1.6760    2.9630 c         1 MOL      0.451453
    162 O24         3.9410    2.2900    3.9790 o         1 MOL     -0.578686
    163 C55         2.3670    1.2950    1.4410 c3        1 MOL      0.172907
    164 C56         1.6460    1.7280    0.1340 c3        1 MOL      0.083550
    165 C57         0.4030    0.8820   -0.0200 c         1 MOL      0.585102
    166 O25        -0.7110    1.4860    0.1130 o         1 MOL     -0.693307
    167 O26         0.4170   -0.2650   -0.5540 o         1 MOL     -0.693307
    168 H71         4.6350    0.5910    0.2870 hn        1 MOL      0.127117
    169 H72         3.5110    3.1090    1.5760 h1        1 MOL      0.134322
    170 H73         1.7020    1.4470    2.2910 hc        1 MOL      0.016071
    171 H74         2.4760    0.2250    1.2520 hc        1 MOL      0.016071
    172 H75         2.2860    1.7220   -0.7450 hc        1 MOL     -0.042698
    173 H76         1.3100    2.7530    0.2370 hc        1 MOL     -0.042698
    174 N15         5.0670    0.6090    3.0670 n         1 MOL     -0.018462
    175 C58         5.9480    0.3190    4.2270 c3        1 MOL     -0.397854
    176 H77         5.8390    1.1080    4.9710 h1        1 MOL      0.132712
    177 H78         5.6650   -0.6360    4.6690 h1        1 MOL      0.132712
    178 H79         6.9850    0.2730    3.8940 h1        1 MOL      0.132712
    179 H80         5.1850    0.0830    2.2120 hn        1 MOL      0.030602
    180 Ca1        -2.1800   -0.2990   -1.1500 Ca        1 MOL      1.723619
    181 O27        -0.7550   -0.4840   -3.3480 oh        1 MOL     -0.779119
    182 H81        -0.6430    0.3060   -3.8870 ho        1 MOL      0.385332
    183 H82        -0.2300   -1.1470   -3.7890 ho        1 MOL      0.385332
@<TRIPOS>BOND
     1    1    2 1   
     2    1    4 1   
     3    1    5 1   
     4    1    6 1   
     5    2    3 2   
     6    2    7 1   
     7    7    8 1   
     8    7   15 1   
     9    8    9 1   
    10    8   11 1   
    11    8   16 1   
    12    9   10 2   
    13    9   19 1   
    14   11   12 1   
    15   11   17 1   
    16   11   18 1   
    17   12   13 1   
    18   12   14 1   
    19   19   20 1   
    20   19   27 1   
    21   20   21 1   
    22   20   23 1   
    23   20   28 1   
    24   21   22 2   
    25   21   38 1   
    26   23   24 1   
    27   23   25 1   
    28   23   29 1   
    29   24   26 1   
    30   24   30 1   
    31   24   31 1   
    32   25   32 1   
    33   25   33 1   
    34   25   34 1   
    35   26   35 1   
    36   26   36 1   
    37   26   37 1   
    38   38   39 1   
    39   38   46 1   
    40   39   40 1   
    41   39   42 1   
    42   39   47 1   
    43   40   41 2   
    44   40   50 1   
    45   42   43 1   
    46   42   48 1   
    47   42   49 1   
    48   43   44 1   
    49   43   45 1   
    50   50   51 1   
    51   50   54 1   
    52   51   52 1   
    53   51   55 1   
    54   51   56 1   
    55   52   53 2   
    56   52   57 1   
    57   57   58 1   
    58   57   65 1   
    59   58   59 1   
    60   58   61 1   
    61   58   66 1   
    62   59   60 2   
    63   59   69 1   
    64   61   62 1   
    65   61   67 1   
    66   61   68 1   
    67   62   63 1   
    68   62   64 1   
    69   69   70 1   
    70   69   73 1   
    71   70   71 1   
    72   70   74 1   
    73   70   75 1   
    74   71   72 2   
    75   71   76 1   
    76   76   77 1   
    77   76   85 1   
    78   77   78 1   
    79   77   80 1   
    80   77   86 1   
    81   78   79 2   
    82   78   93 1   
    83   80   81 1   
    84   80   87 1   
    85   80   88 1   
    86   81   82 1   
    87   81   89 1   
    88   81   90 1   
    89   82   83 1   
    90   82   84 2   
    91   83   91 1   
    92   83   92 1   
    93   93   94 1   
    94   93  100 1   
    95   94   95 1   
    96   94   97 1   
    97   94  101 1   
    98   95   96 2   
    99   95  109 1   
   100   97   98 1   
   101   97   99 1   
   102   97  102 1   
   103   98  103 1   
   104   98  104 1   
   105   98  105 1   
   106   99  106 1   
   107   99  107 1   
   108   99  108 1   
   109  109  110 1   
   110  109  117 1   
   111  110  111 1   
   112  110  113 1   
   113  110  118 1   
   114  111  112 2   
   115  111  123 1   
   116  113  114 1   
   117  113  119 1   
   118  113  120 1   
   119  114  115 1   
   120  114  116 2   
   121  115  121 1   
   122  115  122 1   
   123  123  124 1   
   124  123  135 1   
   125  124  125 1   
   126  124  127 1   
   127  124  136 1   
   128  125  126 2   
   129  125  144 1   
   130  127  128 1   
   131  127  137 1   
   132  127  138 1   
   133  128  129 ar  
   134  128  130 ar  
   135  129  131 ar  
   136  129  139 1   
   137  130  132 ar  
   138  130  140 1   
   139  131  133 ar  
   140  131  141 1   
   141  132  133 ar  
   142  132  142 1   
   143  133  134 1   
   144  134  143 1   
   145  144  145 1   
   146  144  153 1   
   147  145  146 1   
   148  145  148 1   
   149  145  154 1   
   150  146  147 2   
   151  146  159 1   
   152  148  149 1   
   153  148  155 1   
   154  148  156 1   
   155  149  150 1   
   156  149  157 1   
   157  149  158 1   
   158  150  151 1   
   159  150  152 1   
   160  159  160 1   
   161  159  168 1   
   162  160  161 1   
   163  160  163 1   
   164  160  169 1   
   165  161  162 2   
   166  161  174 1   
   167  163  164 1   
   168  163  170 1   
   169  163  171 1   
   170  164  165 1   
   171  164  172 1   
   172  164  173 1   
   173  165  166 1   
   174  165  167 1   
   175  174  175 1   
   176  174  179 1   
   177  175  176 1   
   178  175  177 1   
   179  175  178 1   
   180  181  182 1   
   181  181  183 1   
@<TRIPOS>SUBSTRUCTURE
     1 MOL         1 TEMP              0 ****  ****    0 ROOT
