@<TRIPOS>MOLECULE
MOL
  189   185     1     0     0
SMALL
resp


@<TRIPOS>ATOM
      1 C1          0.6170    1.5120    6.0520 c3        1 MOL     -0.327565
      2 C2         -0.0850    1.8030    4.7180 c         1 MOL      0.707156
      3 O1          0.5290    2.4580    3.8190 o         1 MOL     -0.667712
      4 H1          0.8340    2.4510    6.5600 hc        1 MOL      0.090959
      5 H2         -0.0330    0.9020    6.6790 hc        1 MOL      0.090959
      6 H3          1.5480    0.9760    5.8640 hc        1 MOL      0.090959
      7 N1         -1.2080    1.1630    4.4440 n         1 MOL     -0.555306
      8 C3         -1.7850    1.1880    3.0550 c3        1 MOL     -0.025887
      9 C4         -2.2170    2.6200    2.5810 c         1 MOL      0.632448
     10 O2         -2.9600    3.3240    3.2440 o         1 MOL     -0.551058
     11 C5         -3.1060    0.3730    3.0850 c3        1 MOL     -0.248306
     12 C6         -3.7210    0.1680    1.6850 c         1 MOL      0.754167
     13 O3         -3.1950    0.7270    0.6770 o         1 MOL     -0.638755
     14 O4         -4.7240   -0.5740    1.6380 o         1 MOL     -0.638755
     15 H4         -1.7020    0.6900    5.1900 hn        1 MOL      0.353663
     16 H5         -1.1010    0.7450    2.3380 h1        1 MOL      0.070492
     17 H6         -3.9200    0.8350    3.6510 hc        1 MOL      0.074610
     18 H7         -2.9020   -0.5760    3.5900 hc        1 MOL      0.074610
     19 N2         -1.6630    3.1330    1.4140 n         1 MOL     -0.292426
     20 C7         -1.6660    4.5620    1.0750 c3        1 MOL      0.009578
     21 C8         -2.8150    4.9350    0.1400 c         1 MOL      0.446436
     22 O5         -3.4390    5.9630    0.2790 o         1 MOL     -0.551857
     23 C9         -0.3680    4.8650    0.3400 c3        1 MOL      0.204109
     24 C10         0.2280    6.2370    0.2910 c3        1 MOL     -0.086927
     25 C11         0.1070    7.0450    1.6000 c3        1 MOL     -0.022981
     26 C12         0.7910    6.3080    2.7480 c3        1 MOL      0.108884
     27 N3          2.2610    6.4460    2.7070 n4        1 MOL     -0.472448
     28 H8         -1.0090    2.4860    0.9910 hn        1 MOL      0.152673
     29 H9         -1.6950    5.1160    2.0160 h1        1 MOL      0.045804
     30 H10        -0.5160    4.3980   -0.6350 hc        1 MOL     -0.021346
     31 H11         0.4780    4.3390    0.7710 hc        1 MOL     -0.021346
     32 H12        -0.2750    6.8280   -0.4790 hc        1 MOL      0.002725
     33 H13         1.2810    6.1490    0.0100 hc        1 MOL      0.002725
     34 H14        -0.9370    7.1880    1.8690 hc        1 MOL      0.030544
     35 H15         0.5260    8.0530    1.5980 hc        1 MOL      0.030544
     36 H16         0.4380    5.2860    2.8350 hx        1 MOL      0.070738
     37 H17         0.5710    6.7460    3.7180 hx        1 MOL      0.070738
     38 H18         2.6550    6.1530    1.8250 hn        1 MOL      0.350210
     39 H19         2.5180    7.4020    2.9270 hn        1 MOL      0.350210
     40 H20         2.6420    5.8670    3.4400 hn        1 MOL      0.350210
     41 N4         -3.1920    4.0400   -0.7420 n         1 MOL     -0.211000
     42 C13        -4.2480    4.3200   -1.7390 c3        1 MOL      0.005065
     43 C14        -5.5250    3.7070   -1.1020 c         1 MOL      0.426785
     44 O6         -6.5930    4.2180   -1.2530 o         1 MOL     -0.522853
     45 C15        -3.9810    3.7210   -3.1270 c3        1 MOL     -0.254289
     46 C16        -3.3810    2.3340   -3.2150 c         1 MOL      0.603658
     47 O7         -3.2440    1.6380   -2.2150 o         1 MOL     -0.638659
     48 O8         -3.0930    1.9340   -4.4090 o         1 MOL     -0.638659
     49 H21        -2.8190    3.0980   -0.6970 hn        1 MOL      0.191664
     50 H22        -4.4280    5.3850   -1.8870 h1        1 MOL      0.091867
     51 H23        -3.3720    4.4780   -3.6190 hc        1 MOL      0.089890
     52 H24        -4.9360    3.7540   -3.6580 hc        1 MOL      0.089890
     53 N5         -5.4210    2.6520   -0.2350 n         1 MOL     -0.046769
     54 C17        -6.4980    2.0190    0.4910 c3        1 MOL     -0.190775
     55 C18        -7.1680    1.0750   -0.4310 c         1 MOL      0.570374
     56 O9         -8.4070    1.0650   -0.5140 o         1 MOL     -0.586126
     57 H25        -4.5090    2.2510   -0.0600 hn        1 MOL      0.034619
     58 H26        -7.2000    2.7790    0.8250 h1        1 MOL      0.094830
     59 H27        -6.1010    1.4730    1.3580 h1        1 MOL      0.094830
     60 N6         -6.4460    0.2320   -1.1790 n         1 MOL     -0.257235
     61 C19        -6.8330   -1.0170   -2.0130 c3        1 MOL     -0.004864
     62 C20        -6.9170   -2.2710   -1.1560 c         1 MOL      0.521664
     63 O10        -7.4120   -3.2710   -1.6960 o         1 MOL     -0.536043
     64 C21        -5.8760   -1.1410   -3.2310 c3        1 MOL     -0.399489
     65 C22        -4.4560   -1.4410   -2.7820 c         1 MOL      0.817499
     66 O11        -4.1750   -1.9600   -1.7060 o         1 MOL     -0.707797
     67 O12        -3.4840   -1.1090   -3.4570 o         1 MOL     -0.707797
     68 H28        -5.4860    0.2180   -0.8680 hn        1 MOL      0.075101
     69 H29        -7.8520   -0.9050   -2.3900 h1        1 MOL      0.112270
     70 H30        -5.8590   -0.1840   -3.7410 hc        1 MOL      0.144994
     71 H31        -6.2330   -1.9040   -3.9250 hc        1 MOL      0.144994
     72 N7         -6.6430   -2.1570    0.1440 n         1 MOL     -0.387714
     73 C23        -6.6140   -3.3560    1.0340 c3        1 MOL     -0.028950
     74 C24        -5.4460   -4.2380    0.9560 c         1 MOL      0.516390
     75 O13        -5.5530   -5.4430    1.2660 o         1 MOL     -0.586325
     76 H32        -5.9710   -1.4460    0.4130 hn        1 MOL      0.271791
     77 H33        -7.5350   -3.9150    0.8420 h1        1 MOL      0.073130
     78 H34        -6.6430   -3.0360    2.0770 h1        1 MOL      0.073130
     79 N8         -4.2700   -3.7270    0.5910 n         1 MOL     -0.180215
     80 C25        -3.0610   -4.4700    0.4440 c3        1 MOL     -0.244156
     81 C26        -1.8260   -3.5670    0.7030 c         1 MOL      0.755353
     82 O14        -1.9850   -2.4050    0.2640 o         1 MOL     -0.705790
     83 C27        -2.9330   -5.2460   -0.9140 c3        1 MOL      0.698050
     84 C28        -3.2790   -6.7530   -0.8310 c3        1 MOL     -0.703328
     85 O15        -3.5540   -4.6130   -1.9900 oh        1 MOL     -0.681072
     86 H35        -4.2330   -2.7350    0.4360 hn        1 MOL      0.153386
     87 H36        -2.8120   -5.1860    1.2280 h1        1 MOL      0.052080
     88 H37        -1.8890   -5.2660   -1.2280 h1        1 MOL     -0.098058
     89 H38        -3.7420   -3.7270   -1.6740 ho        1 MOL      0.433376
     90 H39        -4.3010   -6.9070   -0.4590 hc        1 MOL      0.173959
     91 H40        -3.2640   -7.1450   -1.8460 hc        1 MOL      0.173959
     92 H41        -2.5760   -7.2000   -0.1330 hc        1 MOL      0.173959
     93 N9         -0.7600   -4.1360    1.2350 n         1 MOL     -0.687890
     94 C29         0.4880   -3.4090    1.4270 c3        1 MOL      0.123886
     95 C30         1.5790   -3.9710    0.4880 c         1 MOL      0.517848
     96 O16         1.8520   -5.1890    0.4360 o         1 MOL     -0.550478
     97 C31         0.8130   -3.5190    2.9180 c3        1 MOL      0.077172
     98 C32        -0.2710   -2.7260    3.7790 c3        1 MOL      0.032457
     99 C33         2.1740   -2.9020    3.3340 c3        1 MOL     -0.317902
    100 C34        -0.1830   -3.1690    5.2760 c3        1 MOL      0.012719
    101 H42        -0.9350   -4.9960    1.7420 hn        1 MOL      0.359445
    102 H43         0.2950   -2.3640    1.1720 h1        1 MOL      0.042677
    103 H44         0.8070   -4.5710    3.1980 hc        1 MOL      0.026273
    104 H45        -1.2440   -3.0180    3.3930 hc        1 MOL      0.008326
    105 H46        -0.1660   -1.6390    3.7720 hc        1 MOL      0.008326
    106 H47         2.9870   -2.9190    2.6170 hc        1 MOL      0.054258
    107 H48         2.0620   -1.8460    3.5740 hc        1 MOL      0.054258
    108 H49         2.6430   -3.4790    4.1380 hc        1 MOL      0.054258
    109 H50        -0.6180   -4.1520    5.4560 hc        1 MOL     -0.007495
    110 H51         0.8240   -3.0990    5.6750 hc        1 MOL     -0.007495
    111 H52        -0.7850   -2.5160    5.9080 hc        1 MOL     -0.007495
    112 N10         2.2800   -3.0810   -0.2370 n         1 MOL     -0.451869
    113 C35         3.6400   -3.2780   -0.8710 c3        1 MOL      0.259034
    114 C36         4.9110   -2.9010   -0.0350 c         1 MOL      0.216496
    115 O17         4.8300   -2.2450    0.9340 o         1 MOL     -0.248709
    116 C37         3.6880   -2.5740   -2.2150 c3        1 MOL      0.057565
    117 C38         2.5510   -2.6540   -3.1730 c3        1 MOL     -0.186037
    118 O18         3.8410   -1.1720   -1.9710 oh        1 MOL     -0.496093
    119 H53         1.8860   -2.1540   -0.2700 hn        1 MOL      0.558490
    120 H54         3.7110   -4.3420   -1.0780 h1        1 MOL      0.026443
    121 H55         4.5280   -3.0180   -2.7480 h1        1 MOL      0.044168
    122 H56         3.1570   -0.7230   -2.4750 ho        1 MOL      0.383404
    123 H57         1.6270   -2.4180   -2.6460 hc        1 MOL      0.039333
    124 H58         2.5900   -1.9050   -3.9610 hc        1 MOL      0.039333
    125 H59         2.5520   -3.6290   -3.6680 hc        1 MOL      0.039333
    126 N11         6.1190   -3.2780   -0.4930 n         1 MOL     -0.217340
    127 C39         7.4140   -2.6810   -0.1200 c3        1 MOL     -0.216367
    128 C40         7.4260   -1.1130   -0.1340 c         1 MOL      0.550358
    129 O19         7.8960   -0.4940    0.7970 o         1 MOL     -0.538617
    130 C41         8.5290   -3.1020   -1.1310 c3        1 MOL      0.349342
    131 C42         8.7510   -4.6520   -0.9940 c3        1 MOL     -0.436968
    132 O20         8.1150   -2.6830   -2.4020 oh        1 MOL     -0.659929
    133 H60         6.0960   -4.0660   -1.1240 hn        1 MOL      0.233934
    134 H61         7.6700   -3.0390    0.8730 h1        1 MOL      0.145299
    135 H62         9.4400   -2.5700   -0.8360 h1        1 MOL      0.038587
    136 H63         8.7430   -3.1120   -2.9900 ho        1 MOL      0.423115
    137 H64         9.8310   -4.7410   -1.0880 hc        1 MOL      0.123844
    138 H65         8.4370   -4.9390    0.0060 hc        1 MOL      0.123844
    139 H66         8.3230   -5.2620   -1.7850 hc        1 MOL      0.123844
    140 N12         6.8330   -0.4520   -1.1190 n         1 MOL     -0.323679
    141 C43         6.7270    1.0010   -1.1790 c3        1 MOL      0.012732
    142 C44         5.7550    1.6770   -0.1640 c         1 MOL      0.543871
    143 O21         5.6580    2.8980   -0.1720 o         1 MOL     -0.627939
    144 C45         6.4560    1.3920   -2.6470 c3        1 MOL     -0.160796
    145 C46         6.1920    2.8480   -2.9500 c3        1 MOL      0.165313
    146 C47         6.1830    3.1000   -4.4290 c3        1 MOL     -0.033677
    147 C48         6.0430    4.6420   -4.6410 c3        1 MOL      0.067327
    148 N13         5.9240    4.8710   -6.0750 n4        1 MOL     -0.192396
    149 H67         6.3400   -0.9120   -1.8700 hn        1 MOL      0.247802
    150 H68         7.6720    1.3470   -0.7680 h1        1 MOL      0.091898
    151 H69         5.5320    0.8990   -2.9400 hc        1 MOL      0.040279
    152 H70         7.3360    1.1070   -3.2280 hc        1 MOL      0.040279
    153 H71         6.8800    3.5310   -2.4520 hc        1 MOL      0.000307
    154 H72         5.1560    3.0100   -2.6500 hc        1 MOL      0.000307
    155 H73         5.3510    2.5840   -4.8980 hc        1 MOL      0.013604
    156 H74         7.1510    2.7290   -4.7610 hc        1 MOL      0.013604
    157 H75         6.9210    5.1260   -4.2170 hx        1 MOL      0.056919
    158 H76         5.1700    4.9340   -4.0560 hx        1 MOL      0.056919
    159 H77         6.6220    4.3680   -6.6100 hn        1 MOL      0.240661
    160 H78         5.0060    4.6520   -6.4180 hn        1 MOL      0.240661
    161 H79         6.0640    5.8470   -6.2960 hn        1 MOL      0.240661
    162 N14         5.1100    0.8570    0.6630 n         1 MOL      0.021996
    163 C49         4.1270    1.2680    1.6910 c3        1 MOL     -0.184925
    164 C50         4.7270    1.0060    3.0880 c         1 MOL      0.441626
    165 O22         4.6210    1.8680    3.9710 o         1 MOL     -0.533898
    166 C51         2.6990    0.6400    1.4160 c3        1 MOL      0.192878
    167 C52         2.1590    1.2940    0.1220 c3        1 MOL     -0.401088
    168 C53         0.8430    0.6370   -0.3790 c         1 MOL      0.705233
    169 O23        -0.0540    1.4450   -0.8630 o         1 MOL     -0.763330
    170 O24         0.5850   -0.5690   -0.2910 o         1 MOL     -0.763330
    171 H80         5.1390   -0.1390    0.5060 hn        1 MOL     -0.155027
    172 H81         4.0780    2.3570    1.7210 h1        1 MOL      0.120305
    173 H82         1.9810    0.8970    2.1970 hc        1 MOL      0.043076
    174 H83         2.6290   -0.4440    1.3250 hc        1 MOL      0.043076
    175 H84         2.9370    1.1940   -0.6270 hc        1 MOL      0.085361
    176 H85         2.0080    2.3620    0.3200 hc        1 MOL      0.085361
    177 N15         5.3320   -0.1830    3.2800 n         1 MOL     -0.183075
    178 C54         6.2500   -0.3380    4.3840 c3        1 MOL     -0.267425
    179 H86         6.3940    0.6260    4.8730 h1        1 MOL      0.112470
    180 H87         5.8410   -1.0500    5.1010 h1        1 MOL      0.112470
    181 H88         7.2070   -0.7030    4.0130 h1        1 MOL      0.112470
    182 H89         5.3930   -0.8320    2.5050 hn        1 MOL      0.210177
    183 Ca1        -1.9240   -0.3690   -1.3390 Ca        1 MOL      1.761142
    184 O25        -1.0220   -2.9580   -2.4570 oh        1 MOL     -0.876167
    185 H90        -0.2930   -2.5620   -2.9440 ho        1 MOL      0.430271
    186 H91        -1.3930   -3.6020   -3.0500 ho        1 MOL      0.430271
    187 O26        -0.2960   -0.3970   -3.5700 oh        1 MOL     -0.876167
    188 H92         0.6010   -0.1080   -3.7070 ho        1 MOL      0.430271
    189 H93        -0.6860   -0.3890   -4.4500 ho        1 MOL      0.430271
@<TRIPOS>BOND
     1    1    2 1   
     2    1    4 1   
     3    1    5 1   
     4    1    6 1   
     5    2    3 2   
     6    2    7 1   
     7    7    8 1   
     8    7   15 1   
     9    8    9 1   
    10    8   11 1   
    11    8   16 1   
    12    9   10 2   
    13    9   19 1   
    14   11   12 1   
    15   11   17 1   
    16   11   18 1   
    17   12   13 1   
    18   12   14 1   
    19   19   20 1   
    20   19   28 1   
    21   20   21 1   
    22   20   23 1   
    23   20   29 1   
    24   21   22 2   
    25   21   41 1   
    26   23   24 1   
    27   23   30 1   
    28   23   31 1   
    29   24   25 1   
    30   24   32 1   
    31   24   33 1   
    32   25   26 1   
    33   25   34 1   
    34   25   35 1   
    35   26   27 1   
    36   26   36 1   
    37   26   37 1   
    38   27   38 1   
    39   27   39 1   
    40   27   40 1   
    41   41   42 1   
    42   41   49 1   
    43   42   43 1   
    44   42   45 1   
    45   42   50 1   
    46   43   44 2   
    47   43   53 1   
    48   45   46 1   
    49   45   51 1   
    50   45   52 1   
    51   46   47 1   
    52   46   48 1   
    53   53   54 1   
    54   53   57 1   
    55   54   55 1   
    56   54   58 1   
    57   54   59 1   
    58   55   56 2   
    59   55   60 1   
    60   60   61 1   
    61   60   68 1   
    62   61   62 1   
    63   61   64 1   
    64   61   69 1   
    65   62   63 2   
    66   62   72 1   
    67   64   65 1   
    68   64   70 1   
    69   64   71 1   
    70   65   66 1   
    71   65   67 1   
    72   72   73 1   
    73   72   76 1   
    74   73   74 1   
    75   73   77 1   
    76   73   78 1   
    77   74   75 2   
    78   74   79 1   
    79   79   80 1   
    80   79   86 1   
    81   80   81 1   
    82   80   83 1   
    83   80   87 1   
    84   81   82 2   
    85   81   93 1   
    86   83   84 1   
    87   83   85 1   
    88   83   88 1   
    89   84   90 1   
    90   84   91 1   
    91   84   92 1   
    92   85   89 1   
    93   93   94 1   
    94   93  101 1   
    95   94   95 1   
    96   94   97 1   
    97   94  102 1   
    98   95   96 2   
    99   95  112 1   
   100   97   98 1   
   101   97   99 1   
   102   97  103 1   
   103   98  100 1   
   104   98  104 1   
   105   98  105 1   
   106   99  106 1   
   107   99  107 1   
   108   99  108 1   
   109  100  109 1   
   110  100  110 1   
   111  100  111 1   
   112  112  113 1   
   113  112  119 1   
   114  113  114 1   
   115  113  116 1   
   116  113  120 1   
   117  114  115 2   
   118  114  126 1   
   119  116  117 1   
   120  116  118 1   
   121  116  121 1   
   122  117  123 1   
   123  117  124 1   
   124  117  125 1   
   125  118  122 1   
   126  126  127 1   
   127  126  133 1   
   128  127  128 1   
   129  127  130 1   
   130  127  134 1   
   131  128  129 2   
   132  128  140 1   
   133  130  131 1   
   134  130  132 1   
   135  130  135 1   
   136  131  137 1   
   137  131  138 1   
   138  131  139 1   
   139  132  136 1   
   140  140  141 1   
   141  140  149 1   
   142  141  142 1   
   143  141  144 1   
   144  141  150 1   
   145  142  143 2   
   146  142  162 1   
   147  144  145 1   
   148  144  151 1   
   149  144  152 1   
   150  145  146 1   
   151  145  153 1   
   152  145  154 1   
   153  146  147 1   
   154  146  155 1   
   155  146  156 1   
   156  147  148 1   
   157  147  157 1   
   158  147  158 1   
   159  148  159 1   
   160  148  160 1   
   161  148  161 1   
   162  162  163 1   
   163  162  171 1   
   164  163  164 1   
   165  163  166 1   
   166  163  172 1   
   167  164  165 2   
   168  164  177 1   
   169  166  167 1   
   170  166  173 1   
   171  166  174 1   
   172  167  168 1   
   173  167  175 1   
   174  167  176 1   
   175  168  169 1   
   176  168  170 1   
   177  177  178 1   
   178  177  182 1   
   179  178  179 1   
   180  178  180 1   
   181  178  181 1   
   182  184  185 1   
   183  184  186 1   
   184  187  188 1   
   185  187  189 1   
@<TRIPOS>SUBSTRUCTURE
     1 MOL         1 TEMP              0 ****  ****    0 ROOT
