@<TRIPOS>MOLECULE
MOL
  179   176     1     0     0
SMALL
resp


@<TRIPOS>ATOM
      1 C1          1.5020    3.7900    4.2160 c3        1 MOL     -0.438448
      2 C2          0.5960    3.4330    3.0290 c         1 MOL      0.717551
      3 O1          0.9700    3.5240    1.8850 o         1 MOL     -0.535808
      4 H1          2.4340    4.2190    3.8450 hc        1 MOL      0.119878
      5 H2          0.9980    4.5160    4.8540 hc        1 MOL      0.119878
      6 H3          1.7210    2.8910    4.7910 hc        1 MOL      0.119878
      7 N1         -0.6240    2.8740    3.3000 n         1 MOL     -0.747700
      8 C3         -1.6120    2.5170    2.2790 c3        1 MOL      0.278971
      9 C4         -2.3890    3.7320    1.8340 c         1 MOL      0.494347
     10 O2         -3.6330    3.8010    1.8670 o         1 MOL     -0.517699
     11 C5         -2.5050    1.4000    2.6780 c3        1 MOL     -0.200806
     12 C6         -3.3310    0.8930    1.5180 c         1 MOL      0.628538
     13 O3         -4.4270    0.2990    1.7500 o         1 MOL     -0.656537
     14 O4         -2.8030    1.0010    0.4290 o         1 MOL     -0.656537
     15 H4         -0.9160    2.6830    4.2510 hn        1 MOL      0.347441
     16 H5         -0.9840    2.2170    1.4340 h1        1 MOL      0.132950
     17 H6         -3.1240    1.5720    3.5530 hc        1 MOL      0.052147
     18 H7         -1.9410    0.5180    3.0000 hc        1 MOL      0.052147
     19 N2         -1.6300    4.7490    1.4050 n         1 MOL     -0.352443
     20 C7         -2.0510    6.0480    0.8900 c3        1 MOL      0.017299
     21 C8         -2.7910    6.0400   -0.4460 c         1 MOL      0.507955
     22 O5         -3.4100    7.0210   -0.7350 o         1 MOL     -0.549521
     23 C9         -0.9060    6.9860    1.0120 c3        1 MOL      0.027488
     24 C10         0.2550    6.5910    0.1090 c3        1 MOL      0.128848
     25 C11         1.2870    7.7720    0.0830 c3        1 MOL     -0.008557
     26 C12         2.6250    7.2520   -0.3080 c3        1 MOL      0.207756
     27 N3          3.6510    8.2360   -0.0450 n4        1 MOL     -0.513351
     28 H8         -0.6390    4.5640    1.4860 hn        1 MOL      0.194477
     29 H9         -2.7760    6.4430    1.6100 h1        1 MOL      0.082568
     30 H10        -0.7250    6.9770    2.0930 hc        1 MOL     -0.000170
     31 H11        -1.2940    7.9790    0.7790 hc        1 MOL     -0.000170
     32 H12        -0.1240    6.4840   -0.8980 hc        1 MOL     -0.028730
     33 H13         0.7580    5.7060    0.5140 hc        1 MOL     -0.028730
     34 H14         1.3600    7.9560    1.1580 hc        1 MOL     -0.006301
     35 H15         0.9380    8.6630   -0.4300 hc        1 MOL     -0.006301
     36 H16         2.5800    6.9660   -1.3620 hx        1 MOL      0.046371
     37 H17         2.8760    6.3110    0.1710 hx        1 MOL      0.046371
     38 H18         4.5330    8.0600   -0.5080 hn        1 MOL      0.360138
     39 H19         3.3180    9.0820   -0.4730 hn        1 MOL      0.360138
     40 H20         3.7680    8.3360    0.9590 hn        1 MOL      0.360138
     41 N4         -2.6020    4.9490   -1.2100 n         1 MOL     -0.298949
     42 C13        -3.4730    4.6740   -2.3060 c3        1 MOL      0.142710
     43 C14        -4.7830    3.9290   -1.9760 c         1 MOL      0.321799
     44 O6         -5.7510    4.0580   -2.8260 o         1 MOL     -0.545087
     45 C15        -2.7650    3.7410   -3.2710 c3        1 MOL     -0.255565
     46 C16        -2.2370    2.4950   -2.5690 c         1 MOL      0.766416
     47 O7         -2.6840    1.3800   -2.8120 o         1 MOL     -0.773468
     48 O8         -1.4670    2.6030   -1.5880 o         1 MOL     -0.773468
     49 H21        -2.0520    4.1710   -0.8550 hn        1 MOL      0.159632
     50 H22        -3.6420    5.5410   -2.9410 h1        1 MOL      0.070693
     51 H23        -1.8920    4.3010   -3.6020 hc        1 MOL      0.070137
     52 H24        -3.4080    3.5480   -4.1360 hc        1 MOL      0.070137
     53 N5         -4.7960    3.2960   -0.8250 n         1 MOL      0.076194
     54 C17        -5.9340    2.7780   -0.0920 c3        1 MOL     -0.241140
     55 C18        -6.3980    1.4100   -0.5770 c         1 MOL      0.441691
     56 O9         -7.4910    0.9150   -0.2080 o         1 MOL     -0.548621
     57 H25        -3.9170    3.2520   -0.3450 hn        1 MOL     -0.030864
     58 H26        -6.7290    3.5230   -0.0820 h1        1 MOL      0.147414
     59 H27        -5.6480    2.6190    0.9390 h1        1 MOL      0.147414
     60 N6         -5.6010    0.6060   -1.3320 n         1 MOL     -0.195050
     61 C19        -6.0040   -0.6620   -1.9430 c3        1 MOL     -0.053836
     62 C20        -6.2040   -1.7970   -0.8420 c         1 MOL      0.343250
     63 O10        -6.7600   -2.8590   -1.1360 o         1 MOL     -0.534121
     64 C21        -5.0470   -1.1710   -3.0390 c3        1 MOL     -0.172591
     65 C22        -3.7360   -1.7050   -2.5660 c         1 MOL      0.514629
     66 N7         -3.0430   -2.4390   -3.3700 n         1 MOL     -0.572709
     67 O11        -3.2820   -1.5590   -1.4210 o         1 MOL     -0.498411
     68 H28        -4.6850    0.9690   -1.5450 hn        1 MOL      0.200100
     69 H29        -6.9240   -0.3890   -2.4440 h1        1 MOL      0.120782
     70 H30        -4.9280   -0.3710   -3.7730 hc        1 MOL      0.089910
     71 H31        -5.5800   -1.9690   -3.5640 hc        1 MOL      0.089910
     72 H32        -3.5270   -2.6150   -4.2420 hn        1 MOL      0.294061
     73 H33        -2.0810   -2.7030   -3.2130 hn        1 MOL      0.294061
     74 N8         -5.7500   -1.6190    0.3980 n         1 MOL      0.049490
     75 C23        -6.0510   -2.4630    1.5790 c3        1 MOL     -0.332151
     76 C24        -4.8490   -3.1990    2.0930 c         1 MOL      0.653768
     77 O12        -4.9450   -4.0470    2.9710 o         1 MOL     -0.601241
     78 H34        -5.1310   -0.8240    0.4630 hn        1 MOL      0.171222
     79 H35        -6.7650   -3.2520    1.3550 h1        1 MOL      0.137219
     80 H36        -6.4280   -1.8900    2.4350 h1        1 MOL      0.137219
     81 N9         -3.7020   -2.8380    1.5230 n         1 MOL     -0.350982
     82 C25        -2.3930   -3.5150    1.7210 c3        1 MOL      0.107251
     83 C26        -1.2100   -2.5200    1.7240 c         1 MOL      0.541839
     84 O13        -1.3280   -1.4470    1.1750 o         1 MOL     -0.641371
     85 C27        -2.0650   -4.3950    0.5060 c3        1 MOL      0.025317
     86 C28        -3.0060   -5.4790    0.0360 ca        1 MOL     -0.190783
     87 C29        -3.8620   -5.2440   -1.0310 ca        1 MOL      0.042624
     88 C30        -3.2530   -6.6150    0.8700 ca        1 MOL      0.042624
     89 C31        -4.7310   -6.2100   -1.4590 ca        1 MOL     -0.429391
     90 C32        -4.2740   -7.5640    0.5030 ca        1 MOL     -0.429391
     91 C33        -5.0170   -7.2890   -0.6430 ca        1 MOL      0.527659
     92 O14        -5.9490   -8.2520   -1.0750 oh        1 MOL     -0.559393
     93 H37        -3.7560   -2.1530    0.7880 hn        1 MOL      0.207715
     94 H38        -2.4080   -4.1020    2.6440 h1        1 MOL      0.040936
     95 H39        -1.1320   -4.9270    0.6910 hc        1 MOL      0.003170
     96 H40        -1.9710   -3.7600   -0.3720 hc        1 MOL      0.003170
     97 H41        -3.7240   -4.3030   -1.5220 ha        1 MOL      0.088775
     98 H42        -2.7060   -6.8770    1.7600 ha        1 MOL      0.088775
     99 H43        -5.2970   -6.0250   -2.3660 ha        1 MOL      0.183350
    100 H44        -4.4730   -8.4030    1.1630 ha        1 MOL      0.183350
    101 H45        -6.0900   -8.9750   -0.4630 ho        1 MOL      0.372715
    102 N10        -0.0480   -2.9490    2.2280 n         1 MOL     -0.529340
    103 C34         1.2680   -2.3420    2.2150 c3        1 MOL      0.060028
    104 C35         2.2700   -3.2980    1.5790 c         1 MOL      0.379712
    105 O15         2.3530   -4.4850    1.9050 o         1 MOL     -0.532114
    106 C36         1.7630   -1.9160    3.5640 c3        1 MOL      0.293536
    107 C37         0.7880   -1.0770    4.3980 c3        1 MOL      0.018256
    108 C38         2.9980   -1.1420    3.3960 c3        1 MOL     -0.426670
    109 C39         1.1490   -0.9640    5.9130 c3        1 MOL     -0.301509
    110 H46        -0.1020   -3.8420    2.7010 hn        1 MOL      0.300644
    111 H47         1.3010   -1.4490    1.5940 h1        1 MOL      0.101749
    112 H48         1.8370   -2.8740    4.0840 hc        1 MOL     -0.038609
    113 H49        -0.1970   -1.5590    4.3120 hc        1 MOL      0.035276
    114 H50         0.6730   -0.1250    3.8790 hc        1 MOL      0.035276
    115 H51         3.3270   -0.8980    4.4040 hc        1 MOL      0.084855
    116 H52         3.8200   -1.7200    2.9770 hc        1 MOL      0.084855
    117 H53         2.8190   -0.1710    2.9390 hc        1 MOL      0.084855
    118 H54         2.0890   -0.4270    6.0100 hc        1 MOL      0.076385
    119 H55         0.3860   -0.5030    6.5370 hc        1 MOL      0.076385
    120 H56         1.4210   -1.9740    6.2410 hc        1 MOL      0.076385
    121 N11         3.0540   -2.7690    0.6270 n         1 MOL     -0.065583
    122 C40         4.0780   -3.5340   -0.1940 c3        1 MOL     -0.224278
    123 C41         5.5120   -2.9740    0.0330 c         1 MOL      0.527471
    124 O16         5.7180   -1.8590    0.5140 o         1 MOL     -0.358161
    125 C42         3.6150   -3.4820   -1.6440 c3        1 MOL      0.290860
    126 O17         3.7030   -2.2000   -2.2510 oh        1 MOL     -0.655726
    127 H57         2.7980   -1.8310    0.3480 hn        1 MOL      0.067124
    128 H58         4.0250   -4.5270    0.2510 h1        1 MOL      0.104328
    129 H59         2.5680   -3.7770   -1.7940 h1        1 MOL     -0.001203
    130 H60         4.1130   -4.2820   -2.1920 h1        1 MOL     -0.001203
    131 H61         2.9980   -1.6750   -1.8580 ho        1 MOL      0.414485
    132 N12         6.5240   -3.7550   -0.3100 n         1 MOL     -0.437544
    133 C43         7.9440   -3.4400   -0.0870 c3        1 MOL      0.123454
    134 C44         8.4730   -2.1080   -0.7080 c         1 MOL      0.505498
    135 O18         9.1560   -1.3260   -0.0360 o         1 MOL     -0.504012
    136 C45         8.7420   -4.7040   -0.4610 c3        1 MOL     -0.335819
    137 H62         6.3050   -4.6830   -0.6370 hn        1 MOL      0.288842
    138 H63         8.0610   -3.2130    0.9690 h1        1 MOL      0.067817
    139 H64         8.9410   -4.7990   -1.5250 hc        1 MOL      0.105103
    140 H65         9.7280   -4.6090   -0.0040 hc        1 MOL      0.105103
    141 H66         8.2210   -5.5880   -0.0970 hc        1 MOL      0.105103
    142 N13         8.1050   -1.8280   -2.0190 n         1 MOL     -0.434037
    143 C46         8.4110   -0.5850   -2.8350 c3        1 MOL      0.121059
    144 C47         7.6370    0.6210   -2.2880 c         1 MOL      0.458036
    145 O19         8.0110    1.7680   -2.4730 o         1 MOL     -0.515542
    146 C48         8.1610   -0.8390   -4.3330 c3        1 MOL     -0.357878
    147 H67         7.5400   -2.5110   -2.5060 hn        1 MOL      0.268138
    148 H68         9.4530   -0.3630   -2.6120 h1        1 MOL      0.102914
    149 H69         7.2680   -1.4120   -4.5610 hc        1 MOL      0.113407
    150 H70         8.2430    0.1080   -4.8700 hc        1 MOL      0.113407
    151 H71         8.9820   -1.5200   -4.5940 hc        1 MOL      0.113407
    152 N14         6.4500    0.4280   -1.5430 n         1 MOL     -0.319054
    153 C49         5.6480    1.4600   -0.8530 c3        1 MOL      0.048555
    154 C50         5.9310    1.6880    0.6270 c         1 MOL      0.397596
    155 O20         5.8280    2.8030    1.1620 o         1 MOL     -0.566623
    156 C51         4.0900    1.3040   -1.1110 c3        1 MOL     -0.080457
    157 C52         3.3020    0.6110    0.0520 c3        1 MOL     -0.077677
    158 C53         1.8990    0.1280   -0.2860 c         1 MOL      0.837281
    159 O21         1.8250   -0.9020   -0.9620 o         1 MOL     -0.782422
    160 O22         0.8860    0.6640    0.1190 o         1 MOL     -0.782422
    161 H72         6.2090   -0.5530   -1.4680 hn        1 MOL      0.158438
    162 H73         5.9190    2.3740   -1.3660 h1        1 MOL      0.084776
    163 H74         3.9640    0.8380   -2.0910 hc        1 MOL      0.030966
    164 H75         3.6950    2.3190   -1.1080 hc        1 MOL      0.030966
    165 H76         3.1550    1.3370    0.8500 hc        1 MOL      0.046352
    166 H77         3.7800   -0.2240    0.5560 hc        1 MOL      0.046352
    167 N15         6.4140    0.6560    1.2920 n         1 MOL     -0.026602
    168 C54         6.8080    0.7490    2.6890 c3        1 MOL     -0.258258
    169 H78         6.5820   -0.1920    3.1930 h1        1 MOL      0.099612
    170 H79         7.8780    0.9470    2.7530 h1        1 MOL      0.099612
    171 H80         6.2580    1.5580    3.1680 h1        1 MOL      0.099612
    172 H81         6.4020   -0.2610    0.8860 hn        1 MOL      0.065760
    173 Ca1        -1.1480    0.0280   -1.1940 Ca        1 MOL      1.785014
    174 O23         0.0960    0.1030   -3.6630 oh        1 MOL     -0.831628
    175 H82        -0.3190   -0.4210   -4.3510 ho        1 MOL      0.411336
    176 H83         1.0020    0.2040   -3.9600 ho        1 MOL      0.411336
    177 O24        -0.1930   -2.4050   -2.2060 oh        1 MOL     -0.831628
    178 H84        -0.2340   -3.3660   -2.1740 ho        1 MOL      0.411336
    179 H85         0.7410   -2.2130   -2.1690 ho        1 MOL      0.411336
@<TRIPOS>BOND
     1    1    2 1   
     2    1    4 1   
     3    1    5 1   
     4    1    6 1   
     5    2    3 2   
     6    2    7 1   
     7    7    8 1   
     8    7   15 1   
     9    8    9 1   
    10    8   11 1   
    11    8   16 1   
    12    9   10 2   
    13    9   19 1   
    14   11   12 1   
    15   11   17 1   
    16   11   18 1   
    17   12   13 1   
    18   12   14 1   
    19   19   20 1   
    20   19   28 1   
    21   20   21 1   
    22   20   23 1   
    23   20   29 1   
    24   21   22 2   
    25   21   41 1   
    26   23   24 1   
    27   23   30 1   
    28   23   31 1   
    29   24   25 1   
    30   24   32 1   
    31   24   33 1   
    32   25   26 1   
    33   25   34 1   
    34   25   35 1   
    35   26   27 1   
    36   26   36 1   
    37   26   37 1   
    38   27   38 1   
    39   27   39 1   
    40   27   40 1   
    41   41   42 1   
    42   41   49 1   
    43   42   43 1   
    44   42   45 1   
    45   42   50 1   
    46   43   44 2   
    47   43   53 1   
    48   45   46 1   
    49   45   51 1   
    50   45   52 1   
    51   46   47 1   
    52   46   48 1   
    53   53   54 1   
    54   53   57 1   
    55   54   55 1   
    56   54   58 1   
    57   54   59 1   
    58   55   56 2   
    59   55   60 1   
    60   60   61 1   
    61   60   68 1   
    62   61   62 1   
    63   61   64 1   
    64   61   69 1   
    65   62   63 2   
    66   62   74 1   
    67   64   65 1   
    68   64   70 1   
    69   64   71 1   
    70   65   66 1   
    71   65   67 2   
    72   66   72 1   
    73   66   73 1   
    74   74   75 1   
    75   74   78 1   
    76   75   76 1   
    77   75   79 1   
    78   75   80 1   
    79   76   77 2   
    80   76   81 1   
    81   81   82 1   
    82   81   93 1   
    83   82   83 1   
    84   82   85 1   
    85   82   94 1   
    86   83   84 2   
    87   83  102 1   
    88   85   86 1   
    89   85   95 1   
    90   85   96 1   
    91   86   87 ar  
    92   86   88 ar  
    93   87   89 ar  
    94   87   97 1   
    95   88   90 ar  
    96   88   98 1   
    97   89   91 ar  
    98   89   99 1   
    99   90   91 ar  
   100   90  100 1   
   101   91   92 1   
   102   92  101 1   
   103  102  103 1   
   104  102  110 1   
   105  103  104 1   
   106  103  106 1   
   107  103  111 1   
   108  104  105 2   
   109  104  121 1   
   110  106  107 1   
   111  106  108 1   
   112  106  112 1   
   113  107  109 1   
   114  107  113 1   
   115  107  114 1   
   116  108  115 1   
   117  108  116 1   
   118  108  117 1   
   119  109  118 1   
   120  109  119 1   
   121  109  120 1   
   122  121  122 1   
   123  121  127 1   
   124  122  123 1   
   125  122  125 1   
   126  122  128 1   
   127  123  124 2   
   128  123  132 1   
   129  125  126 1   
   130  125  129 1   
   131  125  130 1   
   132  126  131 1   
   133  132  133 1   
   134  132  137 1   
   135  133  134 1   
   136  133  136 1   
   137  133  138 1   
   138  134  135 2   
   139  134  142 1   
   140  136  139 1   
   141  136  140 1   
   142  136  141 1   
   143  142  143 1   
   144  142  147 1   
   145  143  144 1   
   146  143  146 1   
   147  143  148 1   
   148  144  145 2   
   149  144  152 1   
   150  146  149 1   
   151  146  150 1   
   152  146  151 1   
   153  152  153 1   
   154  152  161 1   
   155  153  154 1   
   156  153  156 1   
   157  153  162 1   
   158  154  155 2   
   159  154  167 1   
   160  156  157 1   
   161  156  163 1   
   162  156  164 1   
   163  157  158 1   
   164  157  165 1   
   165  157  166 1   
   166  158  159 1   
   167  158  160 1   
   168  167  168 1   
   169  167  172 1   
   170  168  169 1   
   171  168  170 1   
   172  168  171 1   
   173  174  175 1   
   174  174  176 1   
   175  177  178 1   
   176  177  179 1   
@<TRIPOS>SUBSTRUCTURE
     1 MOL         1 TEMP              0 ****  ****    0 ROOT
