@<TRIPOS>MOLECULE
MOL
  183   181     1     0     0
SMALL
resp


@<TRIPOS>ATOM
      1 C1         -0.4260    2.0340    5.9560 c3        1 MOL     -0.283442
      2 C2         -0.9060    2.0850    4.5770 c         1 MOL      0.802900
      3 O1         -0.2520    2.7330    3.8080 o         1 MOL     -0.543199
      4 H1         -0.7630    1.1080    6.4230 hc        1 MOL      0.054382
      5 H2          0.6630    2.0690    5.9640 hc        1 MOL      0.054382
      6 H3         -0.8220    2.8850    6.5100 hc        1 MOL      0.054382
      7 N1         -2.0090    1.3720    4.2350 n         1 MOL     -0.672297
      8 C3         -2.4730    1.2860    2.8270 c3        1 MOL      0.387582
      9 C4         -3.1110    2.5860    2.3360 c         1 MOL      0.425438
     10 O2         -4.0890    2.9400    3.0070 o         1 MOL     -0.554488
     11 C5         -3.5030    0.2060    2.6400 c3        1 MOL     -0.389554
     12 C6         -4.3370    0.1780    1.3530 c         1 MOL      0.659595
     13 O3         -5.5270   -0.2120    1.4540 o         1 MOL     -0.559207
     14 O4         -3.9090    0.7690    0.3220 o         1 MOL     -0.559207
     15 H4         -2.4050    0.7620    4.9300 hn        1 MOL      0.319329
     16 H5         -1.5520    1.1620    2.2490 h1        1 MOL     -0.080789
     17 H6         -4.2080    0.2370    3.4660 hc        1 MOL      0.072818
     18 H7         -3.0560   -0.7940    2.6290 hc        1 MOL      0.072818
     19 N2         -2.6610    3.2620    1.2580 n         1 MOL     -0.418414
     20 C7         -3.1750    4.5890    0.8350 c3        1 MOL     -0.050968
     21 C8         -4.1700    4.4690   -0.3740 c         1 MOL      0.383972
     22 O5         -4.8550    5.3830   -0.8200 o         1 MOL     -0.559376
     23 C9         -1.8860    5.5410    0.5780 c3        1 MOL      0.290616
     24 C10        -0.9490    5.6420    1.8150 c3        1 MOL      0.083112
     25 C11        -2.2330    6.9750    0.1010 c3        1 MOL     -0.352550
     26 C12        -1.6870    5.8890    3.1830 c3        1 MOL     -0.248750
     27 H8         -1.9360    2.7890    0.7220 hn        1 MOL      0.318726
     28 H9         -3.7130    5.0710    1.6500 h1        1 MOL      0.084835
     29 H10        -1.2610    5.0270   -0.1460 hc        1 MOL     -0.006115
     30 H11        -0.2480    6.4590    1.6540 hc        1 MOL     -0.025857
     31 H12        -0.3640    4.7340    1.9240 hc        1 MOL     -0.025857
     32 H13        -2.9660    7.5060    0.7130 hc        1 MOL      0.070310
     33 H14        -1.3940    7.6570    0.2250 hc        1 MOL      0.070310
     34 H15        -2.5090    6.9040   -0.9470 hc        1 MOL      0.070310
     35 H16        -2.3160    5.0310    3.4090 hc        1 MOL      0.045442
     36 H17        -0.9280    5.9020    3.9700 hc        1 MOL      0.045442
     37 H18        -2.2400    6.8240    3.1570 hc        1 MOL      0.045442
     38 N3         -4.3720    3.2550   -0.9360 n         1 MOL      0.074962
     39 C13        -5.3810    2.9530   -1.9810 c3        1 MOL     -0.221913
     40 C14        -6.7640    2.7310   -1.4310 c         1 MOL      0.594669
     41 O6         -7.7530    3.2220   -1.9760 o         1 MOL     -0.575419
     42 C15        -4.9920    1.8550   -2.9540 c3        1 MOL      0.054926
     43 C16        -3.5450    2.0340   -3.3390 c         1 MOL      0.565258
     44 O7         -3.1700    2.8870   -4.1650 o         1 MOL     -0.655163
     45 O8         -2.7190    1.2350   -2.7620 o         1 MOL     -0.655163
     46 H19        -3.6490    2.5990   -0.6710 hn        1 MOL      0.067324
     47 H20        -5.5290    3.8780   -2.5530 h1        1 MOL      0.093638
     48 H21        -5.5500    1.8740   -3.8800 hc        1 MOL     -0.029721
     49 H22        -5.1470    0.9330   -2.3800 hc        1 MOL     -0.029721
     50 N4         -6.7940    2.0170   -0.3070 n         1 MOL     -0.406152
     51 C17        -8.0630    1.3860    0.1340 c3        1 MOL     -0.073442
     52 C18        -8.3440   -0.0090   -0.4030 c         1 MOL      0.406959
     53 O9         -9.4380   -0.4830   -0.6290 o         1 MOL     -0.591119
     54 H23        -5.9130    1.6070   -0.0220 hn        1 MOL      0.218739
     55 H24        -8.8860    2.0980    0.0330 h1        1 MOL      0.086536
     56 H25        -7.9820    1.2250    1.2120 h1        1 MOL      0.086536
     57 N5         -7.2720   -0.7160   -0.7520 n         1 MOL     -0.048626
     58 C19        -7.3460   -2.1240   -1.2930 c3        1 MOL     -0.040779
     59 C20        -7.1060   -3.2000   -0.1710 c         1 MOL      0.309743
     60 O10        -7.3920   -4.4160   -0.3450 o         1 MOL     -0.570765
     61 C21        -6.2790   -2.3050   -2.4460 c3        1 MOL     -0.265603
     62 C22        -4.8670   -1.8690   -2.0960 c         1 MOL      0.543610
     63 O11        -4.1410   -1.3130   -2.9500 o         1 MOL     -0.614957
     64 O12        -4.3550   -2.1580   -0.9920 o         1 MOL     -0.614957
     65 H26        -6.3600   -0.3580   -0.4990 hn        1 MOL      0.175360
     66 H27        -8.3430   -2.3670   -1.6520 h1        1 MOL      0.112999
     67 H28        -6.6730   -1.6730   -3.2390 hc        1 MOL      0.085860
     68 H29        -6.2870   -3.3260   -2.8440 hc        1 MOL      0.085860
     69 N6         -6.5470   -2.8110    0.9270 n         1 MOL      0.024081
     70 C23        -6.2050   -3.5820    2.1350 c3        1 MOL      0.006986
     71 C24        -4.9650   -4.3960    1.9480 c         1 MOL      0.550231
     72 O13        -4.9330   -5.5300    2.2720 o         1 MOL     -0.558469
     73 H30        -6.4070   -1.8140    1.0490 hn        1 MOL      0.033681
     74 H31        -7.0310   -4.2170    2.4260 h1        1 MOL      0.016864
     75 H32        -6.0400   -2.9050    2.9650 h1        1 MOL      0.016864
     76 N7         -3.9050   -3.8200    1.2990 n         1 MOL     -0.274631
     77 C25        -2.5600   -4.3940    1.2010 c3        1 MOL      0.005507
     78 C26        -1.5260   -3.3380    1.2560 c         1 MOL      0.510181
     79 O14        -1.8410   -2.1430    1.0730 o         1 MOL     -0.565237
     80 C27        -2.4870   -5.4890    0.0870 c3        1 MOL     -0.068408
     81 C28        -3.1960   -5.2050   -1.2840 c3        1 MOL     -0.141347
     82 C29        -2.4940   -4.1710   -2.1700 c         1 MOL      0.647434
     83 N8         -2.7870   -4.1230   -3.4680 n         1 MOL     -0.843326
     84 O15        -1.7700   -3.3170   -1.7320 o         1 MOL     -0.570404
     85 H33        -4.0610   -2.9590    0.7920 hn        1 MOL      0.143018
     86 H34        -2.4010   -4.9370    2.1280 h1        1 MOL      0.045409
     87 H35        -2.9650   -6.3110    0.6210 hc        1 MOL      0.028896
     88 H36        -1.4810   -5.8400   -0.1470 hc        1 MOL      0.028896
     89 H37        -4.2270   -4.8580   -1.2090 hc        1 MOL      0.062250
     90 H38        -3.2700   -6.0840   -1.9200 hc        1 MOL      0.062250
     91 H39        -3.5280   -4.7030   -3.8520 hn        1 MOL      0.378520
     92 H40        -2.3680   -3.4020   -4.0320 hn        1 MOL      0.378520
     93 N9         -0.3310   -3.6700    1.6080 n         1 MOL     -0.335661
     94 C30         0.8470   -2.8240    1.8110 c3        1 MOL     -0.011614
     95 C31         1.9360   -3.2360    0.8410 c         1 MOL      0.415496
     96 O16         2.3960   -4.3480    0.9180 o         1 MOL     -0.540134
     97 C32         1.3430   -2.8960    3.2940 c3        1 MOL      0.092010
     98 C33         2.7720   -2.2510    3.5110 c3        1 MOL     -0.195795
     99 C34         0.4090   -2.1100    4.2070 c3        1 MOL     -0.195795
    100 H41        -0.1540   -4.6310    1.8560 hn        1 MOL      0.265476
    101 H42         0.6680   -1.7950    1.5090 h1        1 MOL      0.131873
    102 H43         1.3180   -3.9410    3.6040 hc        1 MOL      0.011505
    103 H44         3.6260   -2.8620    3.2270 hc        1 MOL      0.040311
    104 H45         2.8130   -1.3550    2.9010 hc        1 MOL      0.040311
    105 H46         2.9680   -2.0810    4.5710 hc        1 MOL      0.040311
    106 H47        -0.6060   -2.4630    4.0540 hc        1 MOL      0.040311
    107 H48         0.6670   -2.1610    5.2630 hc        1 MOL      0.040311
    108 H49         0.4070   -1.0310    4.0540 hc        1 MOL      0.040311
    109 N10         2.1360   -2.4360   -0.2280 n         1 MOL     -0.285353
    110 C35         3.2280   -2.4630   -1.1440 c3        1 MOL      0.094948
    111 C36         4.4890   -2.0650   -0.3890 c         1 MOL      0.394997
    112 O17         4.4690   -1.4760    0.6820 o         1 MOL     -0.306088
    113 C37         2.9940   -1.4030   -2.2220 c3        1 MOL     -0.156982
    114 C38         3.8170   -1.6350   -3.5030 c         1 MOL      0.753577
    115 N11         3.3620   -2.4420   -4.3990 n         1 MOL     -0.858800
    116 O18         4.8540   -1.0770   -3.5900 o         1 MOL     -0.606794
    117 H50         1.4410   -1.6980   -0.2970 hn        1 MOL      0.197174
    118 H51         3.3810   -3.4350   -1.5950 h1        1 MOL      0.032168
    119 H52         3.2710   -0.4400   -1.7940 hc        1 MOL      0.066731
    120 H53         1.9590   -1.5130   -2.5790 hc        1 MOL      0.066731
    121 H54         2.4240   -2.8300   -4.4200 hn        1 MOL      0.380442
    122 H55         3.8690   -2.4260   -5.2680 hn        1 MOL      0.380442
    123 N12         5.6960   -2.3180   -0.9820 n         1 MOL     -0.574233
    124 C39         6.9280   -1.6880   -0.3610 c3        1 MOL      0.159713
    125 C40         6.9880   -0.1840   -0.4070 c         1 MOL      0.847575
    126 O19         7.4700    0.5030    0.4710 o         1 MOL     -0.569500
    127 C41         8.1540   -2.3160   -1.1050 c3        1 MOL     -0.044639
    128 C42         9.4560   -1.8430   -0.5520 ca        1 MOL     -0.001773
    129 C43         9.9620   -2.0530    0.7830 ca        1 MOL     -0.279572
    130 C44        10.2660   -1.0830   -1.4350 ca        1 MOL     -0.279572
    131 C45        11.2420   -1.6780    1.2570 ca        1 MOL     -0.063095
    132 C46        11.4400   -0.5540   -0.9160 ca        1 MOL     -0.063095
    133 C47        11.9710   -0.9140    0.3480 ca        1 MOL      0.171731
    134 O20        13.2490   -0.5430    0.6680 oh        1 MOL     -0.470556
    135 H56         5.7460   -2.8930   -1.8050 hn        1 MOL      0.312202
    136 H57         6.9600   -1.9500    0.6970 h1        1 MOL      0.025648
    137 H58         8.0870   -2.0310   -2.1550 hc        1 MOL      0.042259
    138 H59         7.9650   -3.3810   -1.1700 hc        1 MOL      0.042259
    139 H60         9.3820   -2.7460    1.3770 ha        1 MOL      0.150478
    140 H61        10.0290   -0.8320   -2.4630 ha        1 MOL      0.150478
    141 H62        11.6150   -2.0720    2.1890 ha        1 MOL      0.103625
    142 H63        11.9600    0.0850   -1.6150 ha        1 MOL      0.103625
    143 H64        13.7720   -0.3380   -0.1170 ho        1 MOL      0.334179
    144 N13         6.3310    0.4480   -1.3650 n         1 MOL     -0.776462
    145 C48         6.1140    1.9160   -1.4290 c3        1 MOL      0.181821
    146 C49         5.3770    2.4470   -0.1390 c         1 MOL      0.189135
    147 O21         5.5870    3.5300    0.3920 o         1 MOL     -0.481244
    148 C50         5.2940    2.2840   -2.7460 c3        1 MOL      0.033102
    149 C51         4.9530    3.7750   -2.6550 c3        1 MOL     -0.381970
    150 C52         4.1910    4.3040   -3.8950 c         1 MOL      0.783466
    151 O22         2.9690    4.0410   -3.9960 o         1 MOL     -0.741018
    152 O23         4.7520    4.9050   -4.7770 o         1 MOL     -0.741018
    153 H65         5.7140   -0.0990   -1.9500 hn        1 MOL      0.322201
    154 H66         7.0210    2.5080   -1.3550 h1        1 MOL      0.070090
    155 H67         4.3900    1.6750   -2.7630 hc        1 MOL      0.032298
    156 H68         5.9600    2.1580   -3.6120 hc        1 MOL      0.032298
    157 H69         5.9550    4.2010   -2.6880 hc        1 MOL      0.067196
    158 H70         4.5550    4.1530   -1.7210 hc        1 MOL      0.067196
    159 N14         4.4060    1.6520    0.3520 n         1 MOL      0.080566
    160 C53         3.5140    2.0070    1.4810 c3        1 MOL     -0.167095
    161 C54         4.2660    1.7070    2.8250 c         1 MOL      0.412874
    162 O24         4.0420    2.3750    3.8100 o         1 MOL     -0.532919
    163 C55         2.1180    1.3260    1.3490 c3        1 MOL      0.263159
    164 C56         1.2580    1.9080    0.2510 c3        1 MOL     -0.054424
    165 C57         0.1200    1.0380   -0.2140 c         1 MOL      0.648955
    166 O25        -1.0260    1.4930   -0.2460 o         1 MOL     -0.714401
    167 O26         0.3210   -0.1510   -0.4380 o         1 MOL     -0.714401
    168 H71         4.3230    0.7650   -0.1190 hn        1 MOL      0.129243
    169 H72         3.3290    3.0770    1.3860 h1        1 MOL      0.122384
    170 H73         1.5780    1.4330    2.2860 hc        1 MOL     -0.040653
    171 H74         2.2390    0.2570    1.2330 hc        1 MOL     -0.040653
    172 H75         2.0240    2.0220   -0.5130 hc        1 MOL     -0.000434
    173 H76         0.9330    2.9180    0.4750 hc        1 MOL     -0.000434
    174 N15         5.1600    0.6530    2.8500 n         1 MOL     -0.011588
    175 C58         6.0180    0.2510    3.8740 c3        1 MOL     -0.198412
    176 H77         5.6690   -0.6950    4.2900 h1        1 MOL      0.064639
    177 H78         7.0250    0.1220    3.4760 h1        1 MOL      0.064639
    178 H79         6.0310    1.0090    4.6580 h1        1 MOL      0.064639
    179 H80         5.3070    0.1440    1.9830 hn        1 MOL      0.022204
    180 Ca1        -2.2870   -0.6330   -1.1100 Ca        1 MOL      1.689290
    181 O27        -0.9440   -0.8200   -3.3430 oh        1 MOL     -0.863256
    182 H81        -1.4960   -0.7250   -4.1230 ho        1 MOL      0.409756
    183 H82        -0.0850   -0.4870   -3.6150 ho        1 MOL      0.409756
@<TRIPOS>BOND
     1    1    2 1   
     2    1    4 1   
     3    1    5 1   
     4    1    6 1   
     5    2    3 2   
     6    2    7 1   
     7    7    8 1   
     8    7   15 1   
     9    8    9 1   
    10    8   11 1   
    11    8   16 1   
    12    9   10 2   
    13    9   19 1   
    14   11   12 1   
    15   11   17 1   
    16   11   18 1   
    17   12   13 1   
    18   12   14 1   
    19   19   20 1   
    20   19   27 1   
    21   20   21 1   
    22   20   23 1   
    23   20   28 1   
    24   21   22 2   
    25   21   38 1   
    26   23   24 1   
    27   23   25 1   
    28   23   29 1   
    29   24   26 1   
    30   24   30 1   
    31   24   31 1   
    32   25   32 1   
    33   25   33 1   
    34   25   34 1   
    35   26   35 1   
    36   26   36 1   
    37   26   37 1   
    38   38   39 1   
    39   38   46 1   
    40   39   40 1   
    41   39   42 1   
    42   39   47 1   
    43   40   41 2   
    44   40   50 1   
    45   42   43 1   
    46   42   48 1   
    47   42   49 1   
    48   43   44 1   
    49   43   45 1   
    50   50   51 1   
    51   50   54 1   
    52   51   52 1   
    53   51   55 1   
    54   51   56 1   
    55   52   53 2   
    56   52   57 1   
    57   57   58 1   
    58   57   65 1   
    59   58   59 1   
    60   58   61 1   
    61   58   66 1   
    62   59   60 2   
    63   59   69 1   
    64   61   62 1   
    65   61   67 1   
    66   61   68 1   
    67   62   63 1   
    68   62   64 1   
    69   69   70 1   
    70   69   73 1   
    71   70   71 1   
    72   70   74 1   
    73   70   75 1   
    74   71   72 2   
    75   71   76 1   
    76   76   77 1   
    77   76   85 1   
    78   77   78 1   
    79   77   80 1   
    80   77   86 1   
    81   78   79 2   
    82   78   93 1   
    83   80   81 1   
    84   80   87 1   
    85   80   88 1   
    86   81   82 1   
    87   81   89 1   
    88   81   90 1   
    89   82   83 1   
    90   82   84 2   
    91   83   91 1   
    92   83   92 1   
    93   93   94 1   
    94   93  100 1   
    95   94   95 1   
    96   94   97 1   
    97   94  101 1   
    98   95   96 2   
    99   95  109 1   
   100   97   98 1   
   101   97   99 1   
   102   97  102 1   
   103   98  103 1   
   104   98  104 1   
   105   98  105 1   
   106   99  106 1   
   107   99  107 1   
   108   99  108 1   
   109  109  110 1   
   110  109  117 1   
   111  110  111 1   
   112  110  113 1   
   113  110  118 1   
   114  111  112 2   
   115  111  123 1   
   116  113  114 1   
   117  113  119 1   
   118  113  120 1   
   119  114  115 1   
   120  114  116 2   
   121  115  121 1   
   122  115  122 1   
   123  123  124 1   
   124  123  135 1   
   125  124  125 1   
   126  124  127 1   
   127  124  136 1   
   128  125  126 2   
   129  125  144 1   
   130  127  128 1   
   131  127  137 1   
   132  127  138 1   
   133  128  129 ar  
   134  128  130 ar  
   135  129  131 ar  
   136  129  139 1   
   137  130  132 ar  
   138  130  140 1   
   139  131  133 ar  
   140  131  141 1   
   141  132  133 ar  
   142  132  142 1   
   143  133  134 1   
   144  134  143 1   
   145  144  145 1   
   146  144  153 1   
   147  145  146 1   
   148  145  148 1   
   149  145  154 1   
   150  146  147 2   
   151  146  159 1   
   152  148  149 1   
   153  148  155 1   
   154  148  156 1   
   155  149  150 1   
   156  149  157 1   
   157  149  158 1   
   158  150  151 1   
   159  150  152 1   
   160  159  160 1   
   161  159  168 1   
   162  160  161 1   
   163  160  163 1   
   164  160  169 1   
   165  161  162 2   
   166  161  174 1   
   167  163  164 1   
   168  163  170 1   
   169  163  171 1   
   170  164  165 1   
   171  164  172 1   
   172  164  173 1   
   173  165  166 1   
   174  165  167 1   
   175  174  175 1   
   176  174  179 1   
   177  175  176 1   
   178  175  177 1   
   179  175  178 1   
   180  181  182 1   
   181  181  183 1   
@<TRIPOS>SUBSTRUCTURE
     1 MOL         1 TEMP              0 ****  ****    0 ROOT
