@<TRIPOS>MOLECULE
MOL
  189   185     1     0     0
SMALL
resp


@<TRIPOS>ATOM
      1 C1         -0.1140    0.9240    6.5570 c3        1 MOL     -0.244615
      2 C2         -0.5930    0.8590    5.0390 c         1 MOL      0.743976
      3 O1          0.2640    1.1140    4.1740 o         1 MOL     -0.647627
      4 H1         -0.5370    1.8090    7.0330 hc        1 MOL      0.060762
      5 H2         -0.4510    0.0310    7.0840 hc        1 MOL      0.060762
      6 H3          0.9740    0.9780    6.5930 hc        1 MOL      0.060762
      7 N1         -1.8660    0.5940    4.7260 n         1 MOL     -0.689405
      8 C3         -2.3980    0.7360    3.2520 c3        1 MOL      0.109137
      9 C4         -2.5040    2.2580    2.9290 c         1 MOL      0.507795
     10 O2         -3.5580    2.8760    3.1990 o         1 MOL     -0.566134
     11 C5         -3.6680    0.0180    2.9250 c3        1 MOL      0.010617
     12 C6         -4.0790    0.2400    1.4520 c         1 MOL      0.523900
     13 O3         -3.3810    0.5600    0.5000 o         1 MOL     -0.598390
     14 O4         -5.2660   -0.0790    1.2910 o         1 MOL     -0.598390
     15 H4         -2.4690    0.2510    5.4640 hn        1 MOL      0.351136
     16 H5         -1.6340    0.3400    2.5790 h1        1 MOL      0.035022
     17 H6         -4.4970    0.3290    3.5640 hc        1 MOL      0.016569
     18 H7         -3.4990   -1.0340    3.1970 hc        1 MOL      0.016569
     19 N2         -1.6100    2.8740    2.2470 n         1 MOL     -0.286916
     20 C7         -1.5940    4.3250    1.8030 c3        1 MOL     -0.086332
     21 C8         -2.7850    4.5930    0.9560 c         1 MOL      0.568760
     22 O5         -3.3500    5.6780    1.0440 o         1 MOL     -0.604931
     23 C9         -0.3290    4.4790    0.8970 c3        1 MOL      0.109461
     24 C10         0.3550    5.8530    0.7780 c3        1 MOL     -0.193008
     25 C11        -0.3130    6.9230    0.0060 c3        1 MOL     -0.052735
     26 C12         0.6890    7.9630   -0.3760 c3        1 MOL      0.140055
     27 N3         -0.0130    9.1490   -0.9110 n4        1 MOL     -0.296830
     28 H8         -0.8890    2.2230    1.9500 hn        1 MOL      0.251250
     29 H9         -1.5570    4.8850    2.7310 h1        1 MOL      0.115012
     30 H10        -0.4380    3.9320   -0.0410 hc        1 MOL      0.028332
     31 H11         0.3590    3.8640    1.4800 hc        1 MOL      0.028332
     32 H12         1.3360    5.6650    0.3520 hc        1 MOL      0.072574
     33 H13         0.5720    6.1970    1.7860 hc        1 MOL      0.072574
     34 H14        -1.0490    7.3380    0.6940 hc        1 MOL      0.042834
     35 H15        -0.8640    6.5660   -0.8630 hc        1 MOL      0.042834
     36 H16         1.4390    7.6100   -1.0860 hx        1 MOL      0.030681
     37 H17         1.2390    8.2050    0.5320 hx        1 MOL      0.030681
     38 H18         0.6170    9.7550   -1.4100 hn        1 MOL      0.308281
     39 H19        -0.6800    8.8610   -1.6050 hn        1 MOL      0.308281
     40 H20        -0.5550    9.7530   -0.3110 hn        1 MOL      0.308281
     41 N4         -3.2240    3.7780   -0.0850 n         1 MOL     -0.321023
     42 C13        -4.1830    4.2710   -1.1210 c3        1 MOL      0.144337
     43 C14        -5.5660    3.4690   -1.2010 c         1 MOL      0.441096
     44 O6         -6.4130    3.5790   -2.0560 o         1 MOL     -0.540299
     45 C15        -3.4460    4.4720   -2.5030 c3        1 MOL     -0.460035
     46 C16        -2.5020    3.2680   -2.7890 c         1 MOL      0.963579
     47 O7         -2.6060    2.1250   -2.2530 o         1 MOL     -0.770430
     48 O8         -1.5820    3.3910   -3.6500 o         1 MOL     -0.770430
     49 H21        -2.7860    2.8810   -0.2500 hn        1 MOL      0.107530
     50 H22        -4.4600    5.2990   -0.8630 h1        1 MOL      0.075732
     51 H23        -2.8800    5.3580   -2.2250 hc        1 MOL      0.106109
     52 H24        -4.0850    4.7560   -3.3420 hc        1 MOL      0.106109
     53 N5         -5.8380    2.6900   -0.2170 n         1 MOL     -0.299346
     54 C17        -7.1740    2.0660    0.0360 c3        1 MOL     -0.157829
     55 C18        -7.7230    0.9210   -0.8530 c         1 MOL      0.562554
     56 O9         -8.9320    0.8120   -0.9490 o         1 MOL     -0.579681
     57 H25        -5.1560    2.5610    0.5140 hn        1 MOL      0.264256
     58 H26        -7.9210    2.8550   -0.0470 h1        1 MOL      0.096853
     59 H27        -7.2730    1.6530    1.0420 h1        1 MOL      0.096853
     60 N6         -6.8660    0.0710   -1.3970 n         1 MOL     -0.226737
     61 C19        -7.1140   -1.2220   -1.9390 c3        1 MOL     -0.027106
     62 C20        -7.0970   -2.4030   -0.9500 c         1 MOL      0.366296
     63 O10        -7.5640   -3.4820   -1.3260 o         1 MOL     -0.519141
     64 C21        -6.1570   -1.5200   -3.0490 c3        1 MOL     -0.159065
     65 C22        -4.6500   -1.2340   -2.6740 c         1 MOL      0.479496
     66 O11        -4.1600   -1.6950   -1.5830 o         1 MOL     -0.595657
     67 O12        -3.9390   -0.4390   -3.3810 o         1 MOL     -0.595657
     68 H28        -5.9110    0.2270   -1.1320 hn        1 MOL      0.241850
     69 H29        -8.1140   -1.2610   -2.3870 h1        1 MOL      0.117151
     70 H30        -6.4780   -0.8600   -3.8630 hc        1 MOL      0.069747
     71 H31        -6.2580   -2.5380   -3.4140 hc        1 MOL      0.069747
     72 N7         -6.6330   -2.1950    0.3010 n         1 MOL     -0.162472
     73 C23        -6.4740   -3.2760    1.3270 c3        1 MOL     -0.067655
     74 C24        -5.2750   -4.2100    1.0610 c         1 MOL      0.484871
     75 O13        -5.3700   -5.4250    1.2900 o         1 MOL     -0.557086
     76 H32        -6.2310   -1.2790    0.4180 hn        1 MOL      0.130682
     77 H33        -7.4030   -3.8490    1.3770 h1        1 MOL      0.065765
     78 H34        -6.2940   -2.7290    2.2570 h1        1 MOL      0.065765
     79 N8         -4.2260   -3.6940    0.4300 n         1 MOL     -0.157262
     80 C25        -2.9670   -4.3850    0.2060 c3        1 MOL     -0.171830
     81 C26        -1.7690   -3.4610    0.3580 c         1 MOL      0.514940
     82 O14        -1.8740   -2.2160    0.2830 o         1 MOL     -0.601969
     83 C27        -2.9700   -4.9840   -1.2270 c3        1 MOL      0.484785
     84 C28        -3.8110   -6.2780   -1.2880 c3        1 MOL     -0.502692
     85 O15        -3.5240   -4.1500   -2.2030 oh        1 MOL     -0.642411
     86 H35        -4.2240   -2.7410    0.0920 hn        1 MOL      0.176714
     87 H36        -2.8420   -5.2080    0.9140 h1        1 MOL      0.096197
     88 H37        -2.0020   -5.3720   -1.5260 h1        1 MOL     -0.036526
     89 H38        -3.7990   -3.3260   -1.7990 ho        1 MOL      0.442855
     90 H39        -3.5680   -6.6670   -2.2750 hc        1 MOL      0.130538
     91 H40        -3.4310   -6.9810   -0.5400 hc        1 MOL      0.130538
     92 H41        -4.8490   -5.9490   -1.1810 hc        1 MOL      0.130538
     93 N9         -0.6260   -4.0300    0.7640 n         1 MOL     -0.481305
     94 C29         0.5880   -3.3400    1.0810 c3        1 MOL      0.133888
     95 C30         1.6380   -3.7170   -0.0040 c         1 MOL      0.279667
     96 O16         1.9120   -4.9110   -0.1870 o         1 MOL     -0.507423
     97 C31         1.0350   -3.8450    2.4440 c3        1 MOL     -0.012616
     98 C32         0.2900   -3.1570    3.5630 c3        1 MOL     -0.109270
     99 C33         2.5560   -3.6550    2.7370 c3        1 MOL     -0.011087
    100 C34         0.4670   -3.7040    5.0120 c3        1 MOL     -0.182294
    101 H42        -0.6510   -5.0360    0.8140 hn        1 MOL      0.293214
    102 H43         0.5120   -2.2560    1.0640 h1        1 MOL      0.073106
    103 H44         0.8930   -4.9280    2.4850 hc        1 MOL      0.051192
    104 H45        -0.7830   -3.1050    3.3670 hc        1 MOL      0.072704
    105 H46         0.5970   -2.1220    3.6880 hc        1 MOL      0.072704
    106 H47         2.8570   -3.9200    3.7440 hc        1 MOL      0.002470
    107 H48         3.2400   -4.3110    2.1950 hc        1 MOL      0.002470
    108 H49         2.8080   -2.6000    2.6060 hc        1 MOL      0.002470
    109 H50        -0.3000   -3.3660    5.7160 hc        1 MOL      0.045737
    110 H51         0.5510   -4.7920    5.0320 hc        1 MOL      0.045737
    111 H52         1.4330   -3.3430    5.3720 hc        1 MOL      0.045737
    112 N10         2.2090   -2.7050   -0.7030 n         1 MOL     -0.057805
    113 C35         3.3330   -2.8500   -1.6650 c3        1 MOL      0.000366
    114 C36         4.7130   -3.0240   -0.8960 c         1 MOL      0.303596
    115 O17         4.7570   -2.9170    0.3150 o         1 MOL     -0.307794
    116 C37         3.2780   -1.6970   -2.6530 c3        1 MOL     -0.016976
    117 C38         1.9840   -1.5600   -3.4550 c3        1 MOL     -0.155239
    118 O18         3.4390   -0.5380   -1.8380 oh        1 MOL     -0.366898
    119 H53         1.7670   -1.7990   -0.6900 hn        1 MOL      0.150916
    120 H54         3.1660   -3.7460   -2.2490 h1        1 MOL      0.072127
    121 H55         4.1320   -1.7910   -3.3250 h1        1 MOL      0.051706
    122 H56         2.7700    0.0540   -2.2010 ho        1 MOL      0.337397
    123 H57         1.9620   -0.5320   -3.8190 hc        1 MOL      0.063294
    124 H58         1.8300   -2.2160   -4.3120 hc        1 MOL      0.063294
    125 H59         1.1090   -1.6980   -2.8200 hc        1 MOL      0.063294
    126 N11         5.8420   -3.1760   -1.6400 n         1 MOL     -0.239597
    127 C39         7.1990   -3.0320   -1.0980 c3        1 MOL     -0.217105
    128 C40         7.5250   -1.6200   -0.6110 c         1 MOL      0.534449
    129 O19         8.1440   -1.4350    0.4230 o         1 MOL     -0.521613
    130 C41         8.2320   -3.3460   -2.2490 c3        1 MOL      0.355299
    131 C42         8.1890   -4.7840   -2.6430 c3        1 MOL     -0.325252
    132 O20         7.9710   -2.5720   -3.3520 oh        1 MOL     -0.676772
    133 H60         5.6900   -3.3870   -2.6120 hn        1 MOL      0.242457
    134 H61         7.3780   -3.7080   -0.2630 h1        1 MOL      0.144578
    135 H62         9.1950   -3.0610   -1.8160 h1        1 MOL      0.033656
    136 H63         8.1740   -3.0700   -4.1370 ho        1 MOL      0.439847
    137 H64         8.3840   -5.3960   -1.7620 hc        1 MOL      0.089489
    138 H65         7.2970   -5.0950   -3.1880 hc        1 MOL      0.089489
    139 H66         9.0060   -4.9300   -3.3520 hc        1 MOL      0.089489
    140 N12         6.9670   -0.5870   -1.2470 n         1 MOL     -0.289171
    141 C43         7.1230    0.8090   -0.7290 c3        1 MOL      0.025588
    142 C44         6.2850    1.0900    0.5210 c         1 MOL      0.403707
    143 O21         6.7630    1.8190    1.4220 o         1 MOL     -0.511222
    144 C45         6.7960    1.7290   -1.9080 c3        1 MOL     -0.123627
    145 C46         7.0030    3.2180   -1.8920 c3        1 MOL      0.143277
    146 C47         8.3390    3.6510   -1.3450 c3        1 MOL      0.058019
    147 C48         8.8570    5.1530   -1.4420 c3        1 MOL     -0.110649
    148 N13         7.8940    6.0140   -0.7360 n4        1 MOL     -0.176370
    149 H67         6.5600   -0.7770   -2.1560 hn        1 MOL      0.221772
    150 H68         8.1270    1.0640   -0.3930 h1        1 MOL      0.040379
    151 H69         5.8120    1.4310   -2.2960 hc        1 MOL      0.043877
    152 H70         7.5100    1.4510   -2.6760 hc        1 MOL      0.043877
    153 H71         6.2430    3.6470   -1.2500 hc        1 MOL     -0.046406
    154 H72         6.8250    3.5960   -2.8910 hc        1 MOL     -0.046406
    155 H73         9.0570    3.0150   -1.8560 hc        1 MOL      0.032560
    156 H74         8.3520    3.4320   -0.2810 hc        1 MOL      0.032560
    157 H75         8.9660    5.4480   -2.4810 hx        1 MOL      0.111734
    158 H76         9.8030    5.2220   -0.8940 hx        1 MOL      0.111734
    159 H77         7.0510    6.2210   -1.2510 hn        1 MOL      0.273594
    160 H78         7.5180    5.6130    0.1080 hn        1 MOL      0.273594
    161 H79         8.4010    6.8860   -0.6840 hn        1 MOL      0.273594
    162 N14         5.0310    0.6680    0.5470 n         1 MOL     -0.181544
    163 C49         4.1630    0.7700    1.7600 c3        1 MOL     -0.109841
    164 C50         4.7100   -0.0580    2.9410 c         1 MOL      0.369428
    165 O22         4.8410    0.4630    4.0850 o         1 MOL     -0.540931
    166 C51         2.8010    0.3130    1.3260 c3        1 MOL      0.319269
    167 C52         2.0200    1.3890    0.5520 c3        1 MOL     -0.102399
    168 C53         0.7430    0.7610    0.0640 c         1 MOL      0.665221
    169 O23         0.7200   -0.3010   -0.6020 o         1 MOL     -0.713313
    170 O24        -0.3360    1.3250    0.2240 o         1 MOL     -0.713313
    171 H80         4.6390    0.2010   -0.2590 hn        1 MOL      0.090560
    172 H81         4.2210    1.8140    2.0860 h1        1 MOL      0.087275
    173 H82         2.2670    0.0950    2.2520 hc        1 MOL     -0.020332
    174 H83         2.8880   -0.6660    0.8380 hc        1 MOL     -0.020332
    175 H84         2.5920    1.6670   -0.3310 hc        1 MOL     -0.034822
    176 H85         1.8700    2.3040    1.1350 hc        1 MOL     -0.034822
    177 N15         5.2270   -1.2650    2.7430 n         1 MOL      0.105549
    178 C54         5.9860   -2.0450    3.7440 c3        1 MOL     -0.419096
    179 H86         5.4790   -1.9880    4.7080 h1        1 MOL      0.141990
    180 H87         6.0440   -3.0860    3.4270 h1        1 MOL      0.141990
    181 H88         6.9920   -1.6360    3.8380 h1        1 MOL      0.141990
    182 H89         5.2010   -1.6460    1.8050 hn        1 MOL      0.035543
    183 Ca1        -1.8230   -0.2480   -1.3810 Ca        1 MOL      1.734746
    184 O25        -0.5080    0.7730   -3.4210 oh        1 MOL     -0.835084
    185 H90        -0.9710    1.6040   -3.4890 ho        1 MOL      0.388372
    186 H91         0.4170    1.0080   -3.5050 ho        1 MOL      0.388372
    187 O26        -1.4890   -2.5160   -2.8070 oh        1 MOL     -0.835084
    188 H92        -2.0280   -3.3080   -2.6790 ho        1 MOL      0.388372
    189 H93        -1.2240   -2.5570   -3.7290 ho        1 MOL      0.388372
@<TRIPOS>BOND
     1    1    2 1   
     2    1    4 1   
     3    1    5 1   
     4    1    6 1   
     5    2    3 2   
     6    2    7 1   
     7    7    8 1   
     8    7   15 1   
     9    8    9 1   
    10    8   11 1   
    11    8   16 1   
    12    9   10 2   
    13    9   19 1   
    14   11   12 1   
    15   11   17 1   
    16   11   18 1   
    17   12   13 1   
    18   12   14 1   
    19   19   20 1   
    20   19   28 1   
    21   20   21 1   
    22   20   23 1   
    23   20   29 1   
    24   21   22 2   
    25   21   41 1   
    26   23   24 1   
    27   23   30 1   
    28   23   31 1   
    29   24   25 1   
    30   24   32 1   
    31   24   33 1   
    32   25   26 1   
    33   25   34 1   
    34   25   35 1   
    35   26   27 1   
    36   26   36 1   
    37   26   37 1   
    38   27   38 1   
    39   27   39 1   
    40   27   40 1   
    41   41   42 1   
    42   41   49 1   
    43   42   43 1   
    44   42   45 1   
    45   42   50 1   
    46   43   44 2   
    47   43   53 1   
    48   45   46 1   
    49   45   51 1   
    50   45   52 1   
    51   46   47 1   
    52   46   48 1   
    53   53   54 1   
    54   53   57 1   
    55   54   55 1   
    56   54   58 1   
    57   54   59 1   
    58   55   56 2   
    59   55   60 1   
    60   60   61 1   
    61   60   68 1   
    62   61   62 1   
    63   61   64 1   
    64   61   69 1   
    65   62   63 2   
    66   62   72 1   
    67   64   65 1   
    68   64   70 1   
    69   64   71 1   
    70   65   66 1   
    71   65   67 1   
    72   72   73 1   
    73   72   76 1   
    74   73   74 1   
    75   73   77 1   
    76   73   78 1   
    77   74   75 2   
    78   74   79 1   
    79   79   80 1   
    80   79   86 1   
    81   80   81 1   
    82   80   83 1   
    83   80   87 1   
    84   81   82 2   
    85   81   93 1   
    86   83   84 1   
    87   83   85 1   
    88   83   88 1   
    89   84   90 1   
    90   84   91 1   
    91   84   92 1   
    92   85   89 1   
    93   93   94 1   
    94   93  101 1   
    95   94   95 1   
    96   94   97 1   
    97   94  102 1   
    98   95   96 2   
    99   95  112 1   
   100   97   98 1   
   101   97   99 1   
   102   97  103 1   
   103   98  100 1   
   104   98  104 1   
   105   98  105 1   
   106   99  106 1   
   107   99  107 1   
   108   99  108 1   
   109  100  109 1   
   110  100  110 1   
   111  100  111 1   
   112  112  113 1   
   113  112  119 1   
   114  113  114 1   
   115  113  116 1   
   116  113  120 1   
   117  114  115 2   
   118  114  126 1   
   119  116  117 1   
   120  116  118 1   
   121  116  121 1   
   122  117  123 1   
   123  117  124 1   
   124  117  125 1   
   125  118  122 1   
   126  126  127 1   
   127  126  133 1   
   128  127  128 1   
   129  127  130 1   
   130  127  134 1   
   131  128  129 2   
   132  128  140 1   
   133  130  131 1   
   134  130  132 1   
   135  130  135 1   
   136  131  137 1   
   137  131  138 1   
   138  131  139 1   
   139  132  136 1   
   140  140  141 1   
   141  140  149 1   
   142  141  142 1   
   143  141  144 1   
   144  141  150 1   
   145  142  143 2   
   146  142  162 1   
   147  144  145 1   
   148  144  151 1   
   149  144  152 1   
   150  145  146 1   
   151  145  153 1   
   152  145  154 1   
   153  146  147 1   
   154  146  155 1   
   155  146  156 1   
   156  147  148 1   
   157  147  157 1   
   158  147  158 1   
   159  148  159 1   
   160  148  160 1   
   161  148  161 1   
   162  162  163 1   
   163  162  171 1   
   164  163  164 1   
   165  163  166 1   
   166  163  172 1   
   167  164  165 2   
   168  164  177 1   
   169  166  167 1   
   170  166  173 1   
   171  166  174 1   
   172  167  168 1   
   173  167  175 1   
   174  167  176 1   
   175  168  169 1   
   176  168  170 1   
   177  177  178 1   
   178  177  182 1   
   179  178  179 1   
   180  178  180 1   
   181  178  181 1   
   182  184  185 1   
   183  184  186 1   
   184  187  188 1   
   185  187  189 1   
@<TRIPOS>SUBSTRUCTURE
     1 MOL         1 TEMP              0 ****  ****    0 ROOT
