@<TRIPOS>MOLECULE
MOL
  175   173     1     0     0
SMALL
resp


@<TRIPOS>ATOM
      1 C1          0.6760    5.2110    5.0400 c3        1 MOL     -0.406375
      2 C2          0.1280    4.5920    3.7330 c         1 MOL      0.689974
      3 O1          0.8890    4.3480    2.8290 o         1 MOL     -0.516433
      4 H1         -0.0080    4.9920    5.8600 hc        1 MOL      0.105172
      5 H2          1.6550    4.7880    5.2610 hc        1 MOL      0.105172
      6 H3          0.7650    6.2920    4.9220 hc        1 MOL      0.105172
      7 N1         -1.2140    4.2720    3.6200 n         1 MOL     -0.645582
      8 C3         -1.8910    3.6340    2.4850 c3        1 MOL      0.026012
      9 C4         -1.9490    4.6260    1.4070 c         1 MOL      0.669852
     10 O2         -2.3830    5.7530    1.6260 o         1 MOL     -0.606560
     11 C5         -3.2480    3.1730    2.9080 c3        1 MOL     -0.257015
     12 C6         -4.0810    2.4770    1.7920 c         1 MOL      0.749024
     13 O3         -5.3050    2.1690    1.9780 o         1 MOL     -0.694663
     14 O4         -3.4550    2.1590    0.7600 o         1 MOL     -0.694663
     15 H4         -1.8220    4.5790    4.3660 hn        1 MOL      0.332944
     16 H5         -1.1610    2.8830    2.1490 h1        1 MOL      0.134408
     17 H6         -3.8240    4.0030    3.3110 hc        1 MOL      0.061725
     18 H7         -3.2010    2.5540    3.8090 hc        1 MOL      0.061725
     19 N2         -1.6450    4.2420    0.1350 n         1 MOL     -0.506874
     20 C7         -1.5440    5.1760   -1.0140 c3        1 MOL      0.217468
     21 C8         -2.4750    4.7560   -2.2120 c         1 MOL      0.420215
     22 O5         -2.5370    5.3980   -3.2480 o         1 MOL     -0.550056
     23 C9          0.0020    5.2590   -1.3830 c3        1 MOL     -0.151901
     24 H8         -1.1830    3.3600   -0.0060 hn        1 MOL      0.364527
     25 H9         -1.7980    6.1730   -0.6620 h1        1 MOL      0.026341
     26 H10         0.3180    4.3210   -1.8210 hc        1 MOL      0.033822
     27 H11         0.0810    6.0560   -2.1210 hc        1 MOL      0.033822
     28 H12         0.5880    5.4670   -0.4950 hc        1 MOL      0.033822
     29 N3         -3.3090    3.6710   -2.0970 n         1 MOL     -0.261632
     30 C10        -4.3060    3.3760   -3.1150 c3        1 MOL      0.092638
     31 C11        -5.6700    2.9200   -2.6430 c         1 MOL      0.267960
     32 O6         -6.6540    2.8330   -3.4390 o         1 MOL     -0.527902
     33 C12        -3.6670    2.3500   -4.0630 c3        1 MOL     -0.302612
     34 C13        -3.0470    1.2360   -3.2460 c         1 MOL      0.768104
     35 O7         -3.5500    0.8120   -2.1970 o         1 MOL     -0.727040
     36 O8         -2.0180    0.6500   -3.7130 o         1 MOL     -0.727040
     37 H13        -3.2930    3.1960   -1.2040 hn        1 MOL      0.112538
     38 H14        -4.4500    4.2430   -3.7550 h1        1 MOL      0.093562
     39 H15        -2.8030    2.7510   -4.5780 hc        1 MOL      0.084928
     40 H16        -4.4830    1.9410   -4.6720 hc        1 MOL      0.084928
     41 N4         -5.8080    2.3840   -1.4160 n         1 MOL     -0.117215
     42 C14        -7.0310    1.7740   -0.8580 c3        1 MOL     -0.359616
     43 C15        -7.1700    0.2770   -1.2260 c         1 MOL      0.558956
     44 O9         -8.3180   -0.2040   -0.9920 o         1 MOL     -0.617413
     45 H17        -5.0410    2.4250   -0.7610 hn        1 MOL      0.177777
     46 H18        -7.9270    2.2410   -1.2620 h1        1 MOL      0.162191
     47 H19        -6.9360    1.9360    0.2140 h1        1 MOL      0.162191
     48 N5         -6.1210   -0.3490   -1.7610 n         1 MOL     -0.371136
     49 C16        -6.1920   -1.7340   -2.2650 c3        1 MOL      0.096223
     50 C17        -6.3240   -2.7750   -1.1100 c         1 MOL      0.317762
     51 O10        -6.4490   -3.9920   -1.3800 o         1 MOL     -0.516071
     52 C18        -5.0920   -2.0920   -3.2820 c3        1 MOL     -0.148568
     53 C19        -3.6860   -2.2720   -2.6150 c         1 MOL      0.537433
     54 N6         -2.7340   -2.6360   -3.3990 n         1 MOL     -0.620037
     55 O11        -3.4030   -2.0080   -1.4160 o         1 MOL     -0.456533
     56 H20        -5.2490    0.1410   -1.8010 hn        1 MOL      0.377915
     57 H21        -7.0940   -1.8020   -2.8660 h1        1 MOL      0.089940
     58 H22        -4.9960   -1.2910   -4.0170 hc        1 MOL      0.039673
     59 H23        -5.2900   -3.0240   -3.8110 hc        1 MOL      0.039673
     60 H24        -2.9080   -2.4540   -4.3670 hn        1 MOL      0.332220
     61 H25        -1.8170   -2.5700   -2.9760 hn        1 MOL      0.332220
     62 N7         -6.5160   -2.4170    0.1760 n         1 MOL     -0.125752
     63 C20        -6.7230   -3.3080    1.2980 c3        1 MOL     -0.321617
     64 C21        -5.4280   -3.9710    1.8220 c         1 MOL      0.511006
     65 O12        -5.4900   -4.7820    2.7760 o         1 MOL     -0.586918
     66 H26        -6.3560   -1.4480    0.4330 hn        1 MOL      0.208361
     67 H27        -7.2850   -4.1800    0.9490 h1        1 MOL      0.150464
     68 H28        -7.2230   -2.8430    2.1500 h1        1 MOL      0.150464
     69 N8         -4.2520   -3.7140    1.1870 n         1 MOL     -0.143264
     70 C22        -2.9760   -4.3860    1.7000 c3        1 MOL     -0.204497
     71 C23        -1.8640   -3.3640    1.7990 c         1 MOL      0.587987
     72 O13        -2.0650   -2.2710    1.2310 o         1 MOL     -0.639760
     73 C24        -2.4580   -5.5840    0.9330 c3        1 MOL      0.517730
     74 C25        -3.3660   -6.8450    1.0160 c3        1 MOL     -0.351044
     75 O14        -2.3330   -5.2280   -0.4210 oh        1 MOL     -0.611147
     76 H29        -4.2330   -2.9250    0.5510 hn        1 MOL      0.114643
     77 H30        -3.1600   -4.7770    2.7110 h1        1 MOL      0.082802
     78 H31        -1.4790   -5.8670    1.2990 h1        1 MOL     -0.056668
     79 H32        -1.9220   -4.3510   -0.4580 ho        1 MOL      0.367396
     80 H33        -4.3880   -6.7940    0.6170 hc        1 MOL      0.088540
     81 H34        -2.9160   -7.6920    0.4940 hc        1 MOL      0.088540
     82 H35        -3.3510   -7.1320    2.0610 hc        1 MOL      0.088540
     83 N9         -0.7300   -3.5790    2.5890 n         1 MOL     -0.476760
     84 C26         0.5210   -2.8400    2.4600 c3        1 MOL      0.056236
     85 C27         1.3660   -3.3400    1.2050 c         1 MOL      0.492013
     86 O15         1.6170   -4.5290    1.0420 o         1 MOL     -0.528246
     87 C28         1.2060   -2.7630    3.8600 c3        1 MOL     -0.043652
     88 C29         0.5090   -1.7590    4.7940 c3        1 MOL      0.027601
     89 C30         2.7570   -2.5760    3.6960 c3        1 MOL     -0.028343
     90 C31         0.8320   -0.2320    4.5880 c3        1 MOL      0.052250
     91 H36        -0.9140   -4.3150    3.2500 hn        1 MOL      0.263463
     92 H37         0.1860   -1.8440    2.1800 h1        1 MOL      0.135100
     93 H38         1.0770   -3.7220    4.3600 hc        1 MOL      0.030756
     94 H39         0.7480   -1.9220    5.8510 hc        1 MOL     -0.019984
     95 H40        -0.5540   -1.9460    4.7790 hc        1 MOL     -0.019984
     96 H41         3.0760   -3.4100    3.0770 hc        1 MOL      0.002193
     97 H42         3.0090   -1.6820    3.1310 hc        1 MOL      0.002193
     98 H43         3.2610   -2.7380    4.6440 hc        1 MOL      0.002193
     99 H44         1.8330    0.0350    4.9230 hc        1 MOL     -0.024670
    100 H45         0.6380   -0.0170    3.5420 hc        1 MOL     -0.024670
    101 H46         0.1160    0.3720    5.1540 hc        1 MOL     -0.024670
    102 N10         1.7400   -2.3310    0.3570 n         1 MOL     -0.341205
    103 C32         2.5920   -2.2650   -0.8100 c3        1 MOL      0.207031
    104 C33         4.0310   -1.6870   -0.5640 c         1 MOL      0.398979
    105 O16         4.3090   -1.0690    0.4800 o         1 MOL     -0.356811
    106 C34         1.7950   -1.6200   -1.9540 c3        1 MOL     -0.432798
    107 C35         0.3280   -2.0250   -2.0530 c         1 MOL      0.881865
    108 O17        -0.4870   -1.2700   -1.4760 o         1 MOL     -0.702957
    109 O18        -0.0480   -2.9960   -2.7420 o         1 MOL     -0.702957
    110 H47         1.3100   -1.4290    0.4980 hn        1 MOL      0.195981
    111 H48         2.7390   -3.3100   -1.0780 h1        1 MOL      0.025634
    112 H49         2.3120   -1.8770   -2.8750 hc        1 MOL      0.085287
    113 H50         1.8960   -0.5360   -1.8640 hc        1 MOL      0.085287
    114 N11         4.9620   -2.0180   -1.4120 n         1 MOL     -0.485606
    115 C36         6.3530   -1.8090   -1.2430 c3        1 MOL      0.152673
    116 C37         6.7710   -0.2840   -0.9960 c         1 MOL      0.287014
    117 O19         7.5480   -0.0250   -0.0610 o         1 MOL     -0.460780
    118 C38         7.0780   -2.4130   -2.4620 c3        1 MOL     -0.129672
    119 C39         8.5670   -2.0870   -2.3570 ca        1 MOL      0.091887
    120 C40         9.3780   -2.6030   -1.2890 ca        1 MOL     -0.177266
    121 C41         9.2250   -1.3700   -3.3170 ca        1 MOL     -0.177266
    122 C42        10.7690   -2.3850   -1.2520 ca        1 MOL     -0.100581
    123 C43        10.5680   -1.0620   -3.1970 ca        1 MOL     -0.100581
    124 C44        11.3830   -1.5760   -2.1940 ca        1 MOL     -0.099185
    125 H51         4.6270   -2.3300   -2.3100 hn        1 MOL      0.282989
    126 H52         6.6630   -2.4510   -0.4230 h1        1 MOL      0.095227
    127 H53         6.6210   -1.9440   -3.3400 hc        1 MOL      0.060065
    128 H54         6.9930   -3.4940   -2.5480 hc        1 MOL      0.060065
    129 H55         8.9290   -3.1150   -0.4530 ha        1 MOL      0.116900
    130 H56         8.7190   -0.9650   -4.1850 ha        1 MOL      0.116900
    131 H57        11.3510   -2.6480   -0.3800 ha        1 MOL      0.101908
    132 H58        11.0140   -0.4640   -3.9760 ha        1 MOL      0.101908
    133 H59        12.4460   -1.4070   -2.1430 ha        1 MOL      0.098279
    134 N12         6.2180    0.7430   -1.6790 n         1 MOL      0.032843
    135 C45         6.4370    2.0720   -1.2550 c3        1 MOL     -0.027522
    136 C46         5.8880    2.4640    0.1390 c         1 MOL      0.309188
    137 O20         6.2420    3.4520    0.7500 o         1 MOL     -0.472821
    138 C47         5.6780    2.9190   -2.2950 c3        1 MOL     -0.006345
    139 C48         5.7550    2.0450   -3.6010 c3        1 MOL     -0.027080
    140 C49         5.4690    0.7110   -2.9350 c3        1 MOL     -0.171803
    141 H60         7.5150    2.2690   -1.2150 h1        1 MOL      0.054158
    142 H61         4.6490    3.0670   -1.9670 hc        1 MOL      0.025793
    143 H62         6.0860    3.9310   -2.3700 hc        1 MOL      0.025793
    144 H63         5.0210    2.3230   -4.3650 hc        1 MOL      0.035465
    145 H64         6.7570    2.1590   -4.0160 hc        1 MOL      0.035465
    146 H65         4.4040    0.6330   -2.6950 h1        1 MOL      0.077209
    147 H66         5.8670   -0.0150   -3.6300 h1        1 MOL      0.077209
    148 N13         4.8080    1.7380    0.5210 n         1 MOL     -0.027625
    149 C50         4.1230    2.0340    1.7650 c3        1 MOL     -0.062108
    150 C51         4.8740    1.4690    2.9480 c         1 MOL      0.330301
    151 O21         5.1420    2.1640    3.9830 o         1 MOL     -0.538169
    152 C52         2.6770    1.5650    1.7870 c3        1 MOL      0.113506
    153 C53         1.9070    2.0360    0.4960 c3        1 MOL     -0.279825
    154 C54         0.5260    1.3890    0.3740 c         1 MOL      0.681993
    155 O22         0.1800    0.4440    1.1200 o         1 MOL     -0.735115
    156 O23        -0.3570    1.9110   -0.3830 o         1 MOL     -0.735115
    157 H67         4.2430    1.2370   -0.1570 hn        1 MOL      0.156627
    158 H68         3.9840    3.1110    1.8970 h1        1 MOL      0.084922
    159 H69         2.2220    2.0250    2.6640 hc        1 MOL      0.014747
    160 H70         2.6190    0.4840    1.8170 hc        1 MOL      0.014747
    161 H71         2.4420    1.6370   -0.3620 hc        1 MOL      0.087554
    162 H72         1.8780    3.1250    0.5680 hc        1 MOL      0.087554
    163 N14         5.5010    0.2530    2.7910 n         1 MOL     -0.028276
    164 C55         6.5310   -0.3630    3.6070 c3        1 MOL     -0.167371
    165 H73         6.1160   -1.2310    4.1200 h1        1 MOL      0.068537
    166 H74         7.3590   -0.6790    2.9710 h1        1 MOL      0.068537
    167 H75         6.8920    0.3560    4.3430 h1        1 MOL      0.068537
    168 H76         5.1150   -0.2130    1.9750 hn        1 MOL      0.047158
    169 Ca1        -2.1390    0.0550   -0.0790 Ca        1 MOL      1.674738
    170 O24        -2.2020    0.1890    2.6440 oh        1 MOL     -0.761607
    171 H77        -2.4520   -0.0340    3.5440 ho        1 MOL      0.386420
    172 H78        -1.2660    0.3550    2.6930 ho        1 MOL      0.386420
    173 O25        -4.6850   -0.4210    1.1000 oh        1 MOL     -0.761607
    174 H79        -4.7260    0.5160    1.2630 ho        1 MOL      0.386420
    175 H80        -4.7100   -0.8270    1.9750 ho        1 MOL      0.386420
@<TRIPOS>BOND
     1    1    2 1   
     2    1    4 1   
     3    1    5 1   
     4    1    6 1   
     5    2    3 2   
     6    2    7 1   
     7    7    8 1   
     8    7   15 1   
     9    8    9 1   
    10    8   11 1   
    11    8   16 1   
    12    9   10 2   
    13    9   19 1   
    14   11   12 1   
    15   11   17 1   
    16   11   18 1   
    17   12   13 1   
    18   12   14 1   
    19   19   20 1   
    20   19   24 1   
    21   20   21 1   
    22   20   23 1   
    23   20   25 1   
    24   21   22 2   
    25   21   29 1   
    26   23   26 1   
    27   23   27 1   
    28   23   28 1   
    29   29   30 1   
    30   29   37 1   
    31   30   31 1   
    32   30   33 1   
    33   30   38 1   
    34   31   32 2   
    35   31   41 1   
    36   33   34 1   
    37   33   39 1   
    38   33   40 1   
    39   34   35 1   
    40   34   36 1   
    41   41   42 1   
    42   41   45 1   
    43   42   43 1   
    44   42   46 1   
    45   42   47 1   
    46   43   44 2   
    47   43   48 1   
    48   48   49 1   
    49   48   56 1   
    50   49   50 1   
    51   49   52 1   
    52   49   57 1   
    53   50   51 2   
    54   50   62 1   
    55   52   53 1   
    56   52   58 1   
    57   52   59 1   
    58   53   54 1   
    59   53   55 2   
    60   54   60 1   
    61   54   61 1   
    62   62   63 1   
    63   62   66 1   
    64   63   64 1   
    65   63   67 1   
    66   63   68 1   
    67   64   65 2   
    68   64   69 1   
    69   69   70 1   
    70   69   76 1   
    71   70   71 1   
    72   70   73 1   
    73   70   77 1   
    74   71   72 2   
    75   71   83 1   
    76   73   74 1   
    77   73   75 1   
    78   73   78 1   
    79   74   80 1   
    80   74   81 1   
    81   74   82 1   
    82   75   79 1   
    83   83   84 1   
    84   83   91 1   
    85   84   85 1   
    86   84   87 1   
    87   84   92 1   
    88   85   86 2   
    89   85  102 1   
    90   87   88 1   
    91   87   89 1   
    92   87   93 1   
    93   88   90 1   
    94   88   94 1   
    95   88   95 1   
    96   89   96 1   
    97   89   97 1   
    98   89   98 1   
    99   90   99 1   
   100   90  100 1   
   101   90  101 1   
   102  102  103 1   
   103  102  110 1   
   104  103  104 1   
   105  103  106 1   
   106  103  111 1   
   107  104  105 2   
   108  104  114 1   
   109  106  107 1   
   110  106  112 1   
   111  106  113 1   
   112  107  108 1   
   113  107  109 1   
   114  114  115 1   
   115  114  125 1   
   116  115  116 1   
   117  115  118 1   
   118  115  126 1   
   119  116  117 2   
   120  116  134 1   
   121  118  119 1   
   122  118  127 1   
   123  118  128 1   
   124  119  120 ar  
   125  119  121 ar  
   126  120  122 ar  
   127  120  129 1   
   128  121  123 ar  
   129  121  130 1   
   130  122  124 ar  
   131  122  131 1   
   132  123  124 ar  
   133  123  132 1   
   134  124  133 1   
   135  134  135 1   
   136  134  140 1   
   137  135  136 1   
   138  135  138 1   
   139  135  141 1   
   140  136  137 2   
   141  136  148 1   
   142  138  139 1   
   143  138  142 1   
   144  138  143 1   
   145  139  140 1   
   146  139  144 1   
   147  139  145 1   
   148  140  146 1   
   149  140  147 1   
   150  148  149 1   
   151  148  157 1   
   152  149  150 1   
   153  149  152 1   
   154  149  158 1   
   155  150  151 2   
   156  150  163 1   
   157  152  153 1   
   158  152  159 1   
   159  152  160 1   
   160  153  154 1   
   161  153  161 1   
   162  153  162 1   
   163  154  155 1   
   164  154  156 1   
   165  163  164 1   
   166  163  168 1   
   167  164  165 1   
   168  164  166 1   
   169  164  167 1   
   170  170  171 1   
   171  170  172 1   
   172  173  174 1   
   173  173  175 1   
@<TRIPOS>SUBSTRUCTURE
     1 MOL         1 TEMP              0 ****  ****    0 ROOT
