@<TRIPOS>MOLECULE
MOL
  189   185     1     0     0
SMALL
resp


@<TRIPOS>ATOM
      1 C1          0.3630   -4.7150    5.2720 c3        1 MOL     -0.357865
      2 C2          0.9380   -3.9640    4.0690 c         1 MOL      0.744111
      3 O1          0.7770   -2.7800    3.9630 o         1 MOL     -0.593585
      4 H1         -0.2050   -5.5780    4.9230 hc        1 MOL      0.083638
      5 H2          1.1760   -5.0500    5.9140 hc        1 MOL      0.083638
      6 H3         -0.2950   -4.0520    5.8330 hc        1 MOL      0.083638
      7 N1          1.4660   -4.7410    3.1080 n         1 MOL     -0.496522
      8 C3          2.2100   -4.2060    1.9910 c3        1 MOL      0.063884
      9 C4          2.2160   -5.2280    0.8150 c         1 MOL      0.691146
     10 O2          2.4290   -6.4210    1.1220 o         1 MOL     -0.589812
     11 C5          3.6430   -3.7750    2.3420 c3        1 MOL     -0.363202
     12 C6          4.3580   -3.3050    1.0860 c         1 MOL      0.686863
     13 O3          5.5920   -3.4980    1.0810 o         1 MOL     -0.631119
     14 O4          3.7420   -2.5670    0.2220 o         1 MOL     -0.631119
     15 H4          1.3610   -5.7460    3.1680 hn        1 MOL      0.281648
     16 H5          1.7300   -3.2910    1.6370 h1        1 MOL      0.006028
     17 H6          4.2700   -4.5270    2.8370 hc        1 MOL      0.089984
     18 H7          3.6590   -2.8620    2.9400 hc        1 MOL      0.089984
     19 N2          2.0220   -4.7360   -0.4410 n         1 MOL     -0.411884
     20 C7          1.9590   -5.5460   -1.6860 c3        1 MOL     -0.173878
     21 C8          2.7330   -4.9150   -2.7940 c         1 MOL      0.476361
     22 O5          2.7840   -5.5120   -3.9060 o         1 MOL     -0.581761
     23 C9          0.4530   -5.8150   -2.1470 c3        1 MOL      0.179462
     24 C10        -0.2420   -4.5460   -2.5910 c3        1 MOL      0.093863
     25 C11        -0.3310   -6.3940   -0.9500 c3        1 MOL     -0.191181
     26 C12        -1.6080   -4.7490   -3.3680 c3        1 MOL     -0.357820
     27 H8          1.9760   -3.7500   -0.5890 hn        1 MOL      0.269214
     28 H9          2.3600   -6.5360   -1.4910 h1        1 MOL      0.125785
     29 H10         0.4600   -6.5290   -2.9760 hc        1 MOL     -0.008399
     30 H11         0.5150   -4.0350   -3.1880 hc        1 MOL      0.023426
     31 H12        -0.4130   -3.9650   -1.6870 hc        1 MOL      0.023426
     32 H13        -1.3220   -6.7810   -1.1920 hc        1 MOL      0.030148
     33 H14         0.2220   -7.3020   -0.6970 hc        1 MOL      0.030148
     34 H15        -0.1620   -5.9040    0.0050 hc        1 MOL      0.030148
     35 H16        -1.3810   -5.4150   -4.2050 hc        1 MOL      0.085715
     36 H17        -2.3520   -5.1680   -2.6830 hc        1 MOL      0.085715
     37 H18        -1.9450   -3.7590   -3.6550 hc        1 MOL      0.085715
     38 N3          3.3320   -3.6950   -2.6890 n         1 MOL     -0.317422
     39 C13         4.1030   -2.9220   -3.7030 c3        1 MOL      0.168591
     40 C14         5.5270   -2.5640   -3.2620 c         1 MOL      0.364119
     41 O6          6.3230   -2.1620   -4.1360 o         1 MOL     -0.557708
     42 C15         3.3550   -1.7120   -4.2580 c3        1 MOL     -0.052129
     43 C16         2.6150   -0.7940   -3.2580 c         1 MOL      0.626354
     44 O7          3.0240   -0.7670   -2.1110 o         1 MOL     -0.686397
     45 O8          1.5470   -0.2670   -3.6250 o         1 MOL     -0.686397
     46 H19         3.2890   -3.2190   -1.8000 hn        1 MOL      0.220044
     47 H20         4.3030   -3.6080   -4.5280 h1        1 MOL      0.045042
     48 H21         2.5810   -2.1990   -4.8500 hc        1 MOL      0.008636
     49 H22         4.0330   -1.3250   -5.0300 hc        1 MOL      0.008636
     50 N4          5.8280   -2.5360   -1.9580 n         1 MOL     -0.224718
     51 C17         7.1650   -2.0800   -1.5050 c3        1 MOL     -0.184507
     52 C18         7.5080   -0.5530   -1.3520 c         1 MOL      0.509341
     53 O9          8.6180   -0.1840   -0.9910 o         1 MOL     -0.615552
     54 H23         5.1180   -2.7560   -1.2770 hn        1 MOL      0.132447
     55 H24         7.9080   -2.4390   -2.2210 h1        1 MOL      0.104308
     56 H25         7.3270   -2.5710   -0.5420 h1        1 MOL      0.104308
     57 N5          6.5130    0.2710   -1.6590 n         1 MOL     -0.110218
     58 C19         6.6430    1.6870   -1.9580 c3        1 MOL     -0.188977
     59 C20         6.8140    2.6650   -0.8120 c         1 MOL      0.550241
     60 O10         6.6890    3.8560   -1.0230 o         1 MOL     -0.548826
     61 C21         5.4440    2.0500   -2.7510 c3        1 MOL     -0.012695
     62 C22         4.1030    2.3670   -1.9430 c         1 MOL      0.646304
     63 O11         3.9230    1.9170   -0.7620 o         1 MOL     -0.650857
     64 O12         3.1590    3.0310   -2.5650 o         1 MOL     -0.650857
     65 H26         5.6220   -0.1550   -1.8910 hn        1 MOL      0.154644
     66 H27         7.4850    1.7940   -2.6450 h1        1 MOL      0.120565
     67 H28         5.1300    1.2050   -3.3550 hc        1 MOL      0.019413
     68 H29         5.6690    2.7520   -3.5570 hc        1 MOL      0.019413
     69 N6          6.8670    2.1230    0.4030 n         1 MOL     -0.399340
     70 C23         7.1730    2.9130    1.5920 c3        1 MOL     -0.077212
     71 C24         6.0070    3.7510    2.1510 c         1 MOL      0.467379
     72 O13         6.2850    4.6610    2.9450 o         1 MOL     -0.597120
     73 H30         6.6030    1.1490    0.5030 hn        1 MOL      0.345700
     74 H31         8.0330    3.5440    1.4010 h1        1 MOL      0.073258
     75 H32         7.5200    2.2310    2.3710 h1        1 MOL      0.073258
     76 N7          4.8350    3.5540    1.6130 n         1 MOL     -0.353251
     77 C25         3.5570    4.1620    1.8920 c3        1 MOL      0.139676
     78 C26         2.5180    3.0500    2.1940 c         1 MOL      0.397227
     79 O14         2.7580    1.8660    1.8710 o         1 MOL     -0.518728
     80 C27         3.1610    4.9420    0.5770 c3        1 MOL      0.074253
     81 C28         4.1920    6.1260    0.4390 c3        1 MOL     -0.232413
     82 C29         3.7950    7.1680   -0.6390 c         1 MOL      0.657463
     83 N8          4.6010    8.1020   -1.0480 n         1 MOL     -0.783831
     84 O15         2.6420    7.2540   -1.1090 o         1 MOL     -0.564548
     85 H33         4.7490    2.7770    0.9640 hn        1 MOL      0.279882
     86 H34         3.6090    4.8690    2.7100 h1        1 MOL      0.027042
     87 H35         2.2160    5.4490    0.7300 hc        1 MOL      0.019858
     88 H36         3.1710    4.3190   -0.3190 hc        1 MOL      0.019858
     89 H37         5.1980    5.8030    0.1820 hc        1 MOL      0.073536
     90 H38         4.3210    6.6370    1.3920 hc        1 MOL      0.073536
     91 H39         5.5040    8.1820   -0.6020 hn        1 MOL      0.345721
     92 H40         4.2430    8.7600   -1.7290 hn        1 MOL      0.345721
     93 N9          1.3350    3.4560    2.7440 n         1 MOL     -0.562163
     94 C30         0.1770    2.5280    2.8190 c3        1 MOL      0.254413
     95 C31        -0.9390    2.9720    1.7860 c         1 MOL      0.541772
     96 O16        -1.1270    4.1930    1.5490 o         1 MOL     -0.600990
     97 C32        -0.2270    2.1400    4.2410 c3        1 MOL      0.210360
     98 C33        -0.9370    3.2110    5.0540 c3        1 MOL     -0.191238
     99 C34        -1.1490    0.8560    4.1960 c3        1 MOL     -0.191238
    100 H41         1.2270    4.3330    3.2440 hn        1 MOL      0.307421
    101 H42         0.5150    1.5650    2.4350 h1        1 MOL      0.068098
    102 H43         0.6990    1.8510    4.7350 hc        1 MOL     -0.037381
    103 H44        -0.2040    3.9790    5.2940 hc        1 MOL      0.023316
    104 H45        -1.6390    3.5980    4.3150 hc        1 MOL      0.023316
    105 H46        -1.4010    2.8860    5.9840 hc        1 MOL      0.023316
    106 H47        -1.3950    0.5740    5.2290 hc        1 MOL      0.023316
    107 H48        -2.0900    1.1210    3.7270 hc        1 MOL      0.023316
    108 H49        -0.6180    0.0640    3.6750 hc        1 MOL      0.023316
    109 N10        -1.6740    2.0560    1.2050 n         1 MOL     -0.290008
    110 C35        -2.7850    2.2420    0.2750 c3        1 MOL      0.047859
    111 C36        -4.0900    1.9100    0.9860 c         1 MOL      0.242418
    112 O17        -4.1520    1.1100    1.9150 o         1 MOL     -0.240644
    113 C37        -2.5590    1.2560   -0.9210 c3        1 MOL     -0.124256
    114 C38        -3.6070    1.2720   -2.0510 c         1 MOL      0.579583
    115 N11        -3.8510    2.5330   -2.4660 n         1 MOL     -0.677511
    116 O18        -4.2100    0.3240   -2.5250 o         1 MOL     -0.502564
    117 H50        -1.4160    1.1000    1.3720 hn        1 MOL      0.115776
    118 H51        -2.7720    3.2670   -0.0940 h1        1 MOL      0.086567
    119 H52        -2.5770    0.2160   -0.5860 hc        1 MOL      0.101138
    120 H53        -1.5870    1.3380   -1.4170 hc        1 MOL      0.101138
    121 H54        -3.3220    3.3370   -2.1710 hn        1 MOL      0.309221
    122 H55        -4.5090    2.6070   -3.2370 hn        1 MOL      0.309221
    123 N12        -5.1590    2.4470    0.3230 n         1 MOL     -0.239241
    124 C39        -6.5480    2.2370    0.7940 c3        1 MOL      0.081382
    125 C40        -7.0510    0.7800    0.6350 c         1 MOL      0.078740
    126 O19        -8.1510    0.4720    1.0850 o         1 MOL     -0.464781
    127 C41        -7.4530    3.2780    0.1040 c3        1 MOL     -0.232338
    128 C42        -7.4720    3.3390   -1.4060 ca        1 MOL     -0.002483
    129 C43        -6.9140    4.4610   -2.0410 ca        1 MOL     -0.065556
    130 C44        -8.2190    2.4080   -2.1360 ca        1 MOL     -0.065556
    131 C45        -7.0500    4.5330   -3.4770 ca        1 MOL     -0.359658
    132 C46        -8.2840    2.4180   -3.5290 ca        1 MOL     -0.359658
    133 C47        -7.7190    3.4610   -4.2160 ca        1 MOL      0.498416
    134 O20        -7.8920    3.6240   -5.5200 oh        1 MOL     -0.605417
    135 H56        -5.0230    3.0000   -0.5100 hn        1 MOL      0.161265
    136 H57        -6.6030    2.4130    1.8680 h1        1 MOL      0.090119
    137 H58        -7.2790    4.2360    0.6020 hc        1 MOL      0.095054
    138 H59        -8.4620    3.0390    0.4570 hc        1 MOL      0.095054
    139 H60        -6.3930    5.2360   -1.5060 ha        1 MOL      0.114197
    140 H61        -8.6340    1.5430   -1.6320 ha        1 MOL      0.114197
    141 H62        -6.7650    5.3920   -4.0430 ha        1 MOL      0.144374
    142 H63        -8.8420    1.6920   -4.1030 ha        1 MOL      0.144374
    143 H64        -8.2490    2.8380   -5.9380 ho        1 MOL      0.429247
    144 N13        -6.3930   -0.1190   -0.1590 n         1 MOL      0.629447
    145 C48        -6.6730   -1.5750   -0.0350 c3        1 MOL     -0.371553
    146 C49        -5.7650   -2.3870    0.8750 c         1 MOL      0.438860
    147 O21        -5.9820   -3.5360    1.2530 o         1 MOL     -0.523000
    148 C50        -6.6760   -2.2370   -1.4220 c3        1 MOL     -0.088344
    149 C51        -7.7830   -1.7270   -2.3810 c3        1 MOL      0.038624
    150 C52        -9.2170   -1.7770   -1.7500 c         1 MOL      0.568088
    151 O22        -9.5450   -2.7710   -1.0890 o         1 MOL     -0.674125
    152 O23        -9.9380   -0.7390   -1.8660 o         1 MOL     -0.674125
    153 H65        -5.6130    0.1730   -0.7350 hn        1 MOL     -0.063819
    154 H66        -7.6490   -1.8410    0.3600 h1        1 MOL      0.199691
    155 H67        -6.7720   -3.3190   -1.4240 hc        1 MOL      0.044161
    156 H68        -5.7080   -2.0840   -1.9070 hc        1 MOL      0.044161
    157 H69        -7.8090   -2.3770   -3.2570 hc        1 MOL     -0.053420
    158 H70        -7.5860   -0.7160   -2.7430 hc        1 MOL     -0.053420
    159 N14        -4.6910   -1.7530    1.3650 n         1 MOL     -0.055819
    160 C53        -3.7610   -2.2710    2.3970 c3        1 MOL      0.021152
    161 C54        -4.2500   -1.9190    3.8600 c         1 MOL      0.390428
    162 O24        -4.5530   -2.7650    4.6820 o         1 MOL     -0.551905
    163 C55        -2.2980   -1.7600    2.2020 c3        1 MOL     -0.003486
    164 C56        -1.4470   -2.4190    1.0870 c3        1 MOL     -0.302198
    165 C57        -0.2370   -1.5150    0.7080 c         1 MOL      0.821263
    166 O25         0.6060   -1.8870   -0.0240 o         1 MOL     -0.738721
    167 O26        -0.0600   -0.3540    1.1260 o         1 MOL     -0.738721
    168 H71        -4.6610   -0.7710    1.1360 hn        1 MOL     -0.108424
    169 H72        -3.8020   -3.3550    2.5160 h1        1 MOL      0.042826
    170 H73        -1.7200   -1.7240    3.1210 hc        1 MOL      0.062805
    171 H74        -2.5370   -0.7250    1.9890 hc        1 MOL      0.062805
    172 H75        -2.2080   -2.7180    0.3730 hc        1 MOL      0.080376
    173 H76        -1.0510   -3.3480    1.5070 hc        1 MOL      0.080376
    174 N15        -4.5470   -0.6760    4.1420 n         1 MOL      0.014195
    175 C58        -5.0280   -0.0490    5.3630 c3        1 MOL     -0.274218
    176 H77        -4.7940    1.0160    5.3410 h1        1 MOL      0.098937
    177 H78        -6.1070   -0.1810    5.4400 h1        1 MOL      0.098937
    178 H79        -4.5430   -0.5080    6.2240 h1        1 MOL      0.098937
    179 H80        -4.2650   -0.0340    3.4180 hn        1 MOL     -0.017771
    180 Ca1         2.4850   -0.1150    0.1810 Ca        1 MOL      1.744703
    181 O27         2.3790   -0.7180    2.7750 oh        1 MOL     -0.934044
    182 O28         1.1930    1.6680   -1.3460 oh        1 MOL     -0.934044
    183 H81         1.8070   -1.3710    3.1640 ho        1 MOL      0.434700
    184 H82         0.8040    1.2580   -2.1190 ho        1 MOL      0.434700
    185 H83         2.7040   -0.2040    3.5140 ho        1 MOL      0.434700
    186 H84         1.9470    2.1540   -1.6900 ho        1 MOL      0.434700
    187 O29         5.2870   -0.1680    1.2510 oh        1 MOL     -0.934044
    188 H85         4.8760   -0.0440    2.1060 ho        1 MOL      0.434700
    189 H86         6.0150   -0.7590    1.4190 ho        1 MOL      0.434700
@<TRIPOS>BOND
     1    1    2 1   
     2    1    4 1   
     3    1    5 1   
     4    1    6 1   
     5    2    3 2   
     6    2    7 1   
     7    7    8 1   
     8    7   15 1   
     9    8    9 1   
    10    8   11 1   
    11    8   16 1   
    12    9   10 2   
    13    9   19 1   
    14   11   12 1   
    15   11   17 1   
    16   11   18 1   
    17   12   13 1   
    18   12   14 1   
    19   19   20 1   
    20   19   27 1   
    21   20   21 1   
    22   20   23 1   
    23   20   28 1   
    24   21   22 2   
    25   21   38 1   
    26   23   24 1   
    27   23   25 1   
    28   23   29 1   
    29   24   26 1   
    30   24   30 1   
    31   24   31 1   
    32   25   32 1   
    33   25   33 1   
    34   25   34 1   
    35   26   35 1   
    36   26   36 1   
    37   26   37 1   
    38   38   39 1   
    39   38   46 1   
    40   39   40 1   
    41   39   42 1   
    42   39   47 1   
    43   40   41 2   
    44   40   50 1   
    45   42   43 1   
    46   42   48 1   
    47   42   49 1   
    48   43   44 1   
    49   43   45 1   
    50   50   51 1   
    51   50   54 1   
    52   51   52 1   
    53   51   55 1   
    54   51   56 1   
    55   52   53 2   
    56   52   57 1   
    57   57   58 1   
    58   57   65 1   
    59   58   59 1   
    60   58   61 1   
    61   58   66 1   
    62   59   60 2   
    63   59   69 1   
    64   61   62 1   
    65   61   67 1   
    66   61   68 1   
    67   62   63 1   
    68   62   64 1   
    69   69   70 1   
    70   69   73 1   
    71   70   71 1   
    72   70   74 1   
    73   70   75 1   
    74   71   72 2   
    75   71   76 1   
    76   76   77 1   
    77   76   85 1   
    78   77   78 1   
    79   77   80 1   
    80   77   86 1   
    81   78   79 2   
    82   78   93 1   
    83   80   81 1   
    84   80   87 1   
    85   80   88 1   
    86   81   82 1   
    87   81   89 1   
    88   81   90 1   
    89   82   83 1   
    90   82   84 2   
    91   83   91 1   
    92   83   92 1   
    93   93   94 1   
    94   93  100 1   
    95   94   95 1   
    96   94   97 1   
    97   94  101 1   
    98   95   96 2   
    99   95  109 1   
   100   97   98 1   
   101   97   99 1   
   102   97  102 1   
   103   98  103 1   
   104   98  104 1   
   105   98  105 1   
   106   99  106 1   
   107   99  107 1   
   108   99  108 1   
   109  109  110 1   
   110  109  117 1   
   111  110  111 1   
   112  110  113 1   
   113  110  118 1   
   114  111  112 2   
   115  111  123 1   
   116  113  114 1   
   117  113  119 1   
   118  113  120 1   
   119  114  115 1   
   120  114  116 2   
   121  115  121 1   
   122  115  122 1   
   123  123  124 1   
   124  123  135 1   
   125  124  125 1   
   126  124  127 1   
   127  124  136 1   
   128  125  126 2   
   129  125  144 1   
   130  127  128 1   
   131  127  137 1   
   132  127  138 1   
   133  128  129 ar  
   134  128  130 ar  
   135  129  131 ar  
   136  129  139 1   
   137  130  132 ar  
   138  130  140 1   
   139  131  133 ar  
   140  131  141 1   
   141  132  133 ar  
   142  132  142 1   
   143  133  134 1   
   144  134  143 1   
   145  144  145 1   
   146  144  153 1   
   147  145  146 1   
   148  145  148 1   
   149  145  154 1   
   150  146  147 2   
   151  146  159 1   
   152  148  149 1   
   153  148  155 1   
   154  148  156 1   
   155  149  150 1   
   156  149  157 1   
   157  149  158 1   
   158  150  151 1   
   159  150  152 1   
   160  159  160 1   
   161  159  168 1   
   162  160  161 1   
   163  160  163 1   
   164  160  169 1   
   165  161  162 2   
   166  161  174 1   
   167  163  164 1   
   168  163  170 1   
   169  163  171 1   
   170  164  165 1   
   171  164  172 1   
   172  164  173 1   
   173  165  166 1   
   174  165  167 1   
   175  174  175 1   
   176  174  179 1   
   177  175  176 1   
   178  175  177 1   
   179  175  178 1   
   180  181  183 1   
   181  181  185 1   
   182  182  184 1   
   183  182  186 1   
   184  187  188 1   
   185  187  189 1   
@<TRIPOS>SUBSTRUCTURE
     1 MOL         1 TEMP              0 ****  ****    0 ROOT
