@<TRIPOS>MOLECULE
MOL
  189   185     1     0     0
SMALL
resp


@<TRIPOS>ATOM
      1 C1          0.0130    2.5190    5.9760 c3        1 MOL     -0.215814
      2 C2         -0.3920    2.1570    4.5100 c         1 MOL      0.665188
      3 O1          0.3410    2.5320    3.5830 o         1 MOL     -0.624007
      4 H1          0.2010    1.6040    6.5360 hc        1 MOL      0.050603
      5 H2          0.9160    3.1300    5.9630 hc        1 MOL      0.050603
      6 H3         -0.7960    3.0760    6.4500 hc        1 MOL      0.050603
      7 N1         -1.5310    1.4930    4.3100 n         1 MOL     -0.547724
      8 C3         -2.0600    1.2480    2.9450 c3        1 MOL      0.017669
      9 C4         -2.6070    2.6630    2.4400 c         1 MOL      0.466393
     10 O2         -3.5840    3.1990    3.0060 o         1 MOL     -0.550507
     11 C5         -3.2620    0.2410    3.1350 c3        1 MOL     -0.133961
     12 C6         -3.7720   -0.2510    1.7650 c         1 MOL      0.729991
     13 O3         -4.7070   -1.0120    1.7660 o         1 MOL     -0.691125
     14 O4         -3.2130    0.1420    0.7030 o         1 MOL     -0.691125
     15 H4         -2.1260    1.2970    5.1050 hn        1 MOL      0.325642
     16 H5         -1.2350    0.8940    2.3380 h1        1 MOL      0.070009
     17 H6         -4.0700    0.7820    3.6170 hc        1 MOL      0.050673
     18 H7         -2.9440   -0.6000    3.7540 hc        1 MOL      0.050673
     19 N2         -2.0260    3.2060    1.3950 n         1 MOL     -0.053464
     20 C7         -2.2160    4.6540    1.0600 c3        1 MOL     -0.081446
     21 C8         -3.2260    4.9760   -0.0760 c         1 MOL      0.416074
     22 O5         -3.9590    5.9450    0.1690 o         1 MOL     -0.563874
     23 C9         -0.8130    5.2990    0.8220 c3        1 MOL     -0.024785
     24 C10        -0.9090    6.8170    0.7610 c3        1 MOL     -0.236261
     25 C11         0.3760    7.6300    0.5360 c3        1 MOL      0.012365
     26 C12         1.2640    7.7580    1.7830 c3        1 MOL     -0.077241
     27 N3          2.5410    8.3880    1.3300 n4        1 MOL     -0.286623
     28 H8         -1.3650    2.6000    0.9100 hn        1 MOL      0.078855
     29 H9         -2.5920    5.1950    1.9270 h1        1 MOL      0.107351
     30 H10        -0.5970    4.9290   -0.1850 hc        1 MOL      0.031506
     31 H11        -0.1110    4.9820    1.5860 hc        1 MOL      0.031506
     32 H12        -1.2720    7.0740    1.7500 hc        1 MOL      0.111322
     33 H13        -1.5390    7.1690   -0.0640 hc        1 MOL      0.111322
     34 H14         0.0190    8.5880    0.1710 hc        1 MOL      0.019986
     35 H15         0.9310    7.1280   -0.2550 hc        1 MOL      0.019986
     36 H16         1.5210    6.7630    2.1230 hx        1 MOL      0.146251
     37 H17         0.7240    8.4030    2.4830 hx        1 MOL      0.146251
     38 H18         2.3500    9.3070    0.9590 hn        1 MOL      0.304395
     39 H19         3.2160    8.5500    2.0630 hn        1 MOL      0.304395
     40 H20         2.9630    7.8480    0.5880 hn        1 MOL      0.304395
     41 N4         -3.2660    4.1500   -1.0420 n         1 MOL     -0.230766
     42 C13        -4.3580    4.1360   -1.9950 c3        1 MOL      0.021042
     43 C14        -5.5640    3.3740   -1.4990 c         1 MOL      0.464859
     44 O6         -6.6920    3.7750   -1.7820 o         1 MOL     -0.547044
     45 C15        -3.8660    3.5390   -3.3680 c3        1 MOL     -0.431666
     46 C16        -2.9910    2.3530   -3.3050 c         1 MOL      0.903367
     47 O7         -2.9950    1.6810   -2.2670 o         1 MOL     -0.746423
     48 O8         -2.1730    2.1470   -4.1660 o         1 MOL     -0.746423
     49 H21        -2.5640    3.4140   -1.0720 hn        1 MOL      0.257058
     50 H22        -4.6240    5.1640   -2.2270 h1        1 MOL      0.098356
     51 H23        -3.2720    4.3250   -3.8280 hc        1 MOL      0.110418
     52 H24        -4.7120    3.3640   -4.0230 hc        1 MOL      0.110418
     53 N5         -5.4360    2.3270   -0.6440 n         1 MOL      0.088385
     54 C17        -6.4530    1.6420    0.1220 c3        1 MOL     -0.407754
     55 C18        -7.1820    0.4840   -0.6130 c         1 MOL      0.723882
     56 O9         -8.2750    0.6650   -1.1140 o         1 MOL     -0.553783
     57 H25        -4.5050    1.9870   -0.4420 hn        1 MOL     -0.004615
     58 H26        -7.1700    2.3550    0.5400 h1        1 MOL      0.138408
     59 H27        -5.9040    1.2070    0.9560 h1        1 MOL      0.138408
     60 N6         -6.5710   -0.7070   -0.5960 n         1 MOL     -0.585614
     61 C19        -6.9860   -1.9250   -1.3100 c3        1 MOL      0.123549
     62 C20        -6.8820   -3.1960   -0.5250 c         1 MOL      0.404814
     63 O10        -7.2890   -4.2390   -1.0380 o         1 MOL     -0.538279
     64 C21        -6.1280   -2.0920   -2.5940 c3        1 MOL     -0.204132
     65 C22        -4.6240   -1.9320   -2.2510 c         1 MOL      0.665647
     66 O11        -3.9990   -1.0420   -2.8790 o         1 MOL     -0.697104
     67 O12        -4.0160   -2.5460   -1.3080 o         1 MOL     -0.697104
     68 H28        -5.6190   -0.8320   -0.3070 hn        1 MOL      0.307985
     69 H29        -8.0410   -1.8890   -1.5730 h1        1 MOL      0.077077
     70 H30        -6.3220   -1.3180   -3.3210 hc        1 MOL      0.076301
     71 H31        -6.3420   -3.0450   -3.0830 hc        1 MOL      0.076301
     72 N7         -6.3490   -3.1070    0.6630 n         1 MOL     -0.272267
     73 C23        -6.0380   -4.3140    1.4730 c3        1 MOL     -0.127247
     74 C24        -4.5890   -4.7460    1.5630 c         1 MOL      0.677475
     75 O13        -4.3460   -5.7970    2.1460 o         1 MOL     -0.623695
     76 H32        -6.0970   -2.1970    1.0310 hn        1 MOL      0.254587
     77 H33        -6.5880   -5.1830    1.1110 h1        1 MOL      0.087883
     78 H34        -6.2840   -4.1220    2.5160 h1        1 MOL      0.087883
     79 N8         -3.6750   -4.0290    0.9580 n         1 MOL     -0.495644
     80 C25        -2.3260   -4.5790    0.6780 c3        1 MOL     -0.107353
     81 C26        -1.2960   -3.4820    0.8540 c         1 MOL      0.689956
     82 O14        -1.2850   -2.4580    0.1950 o         1 MOL     -0.673740
     83 C27        -2.2550   -5.2890   -0.7470 c3        1 MOL      0.467354
     84 C28        -2.3940   -6.8180   -0.5480 c3        1 MOL     -0.349769
     85 O15        -3.2880   -4.9700   -1.6470 oh        1 MOL     -0.653239
     86 H35        -4.0390   -3.2990    0.3620 hn        1 MOL      0.332472
     87 H36        -2.0080   -5.2990    1.4330 h1        1 MOL      0.084784
     88 H37        -1.2640   -5.1170   -1.1650 h1        1 MOL     -0.045344
     89 H38        -3.5190   -4.0840   -1.3630 ho        1 MOL      0.460198
     90 H39        -2.3500   -7.3100   -1.5130 hc        1 MOL      0.084571
     91 H40        -1.5770   -7.2640    0.0150 hc        1 MOL      0.084571
     92 H41        -3.3150   -7.0130    0.0070 hc        1 MOL      0.084571
     93 N9         -0.2880   -3.7950    1.6720 n         1 MOL     -0.618123
     94 C29         0.9450   -3.0780    1.8700 c3        1 MOL      0.073539
     95 C30         1.8970   -3.5730    0.7580 c         1 MOL      0.446608
     96 O16         2.3100   -4.7260    0.7730 o         1 MOL     -0.543020
     97 C31         1.4330   -3.1320    3.3410 c3        1 MOL      0.115025
     98 C32         0.5620   -2.0620    4.1020 c3        1 MOL     -0.030705
     99 C33         2.9830   -2.9730    3.3690 c3        1 MOL     -0.231839
    100 C34         0.5360   -2.1560    5.6480 c3        1 MOL     -0.296100
    101 H42        -0.3530   -4.6870    2.1410 hn        1 MOL      0.334990
    102 H43         0.6900   -2.0320    1.6850 h1        1 MOL      0.068779
    103 H44         1.1670   -4.1300    3.6950 hc        1 MOL      0.017114
    104 H45        -0.4630   -2.1930    3.7530 hc        1 MOL      0.057439
    105 H46         0.9140   -1.1030    3.7070 hc        1 MOL      0.057439
    106 H47         3.2800   -2.9670    4.4140 hc        1 MOL      0.047464
    107 H48         3.5500   -3.7730    2.8880 hc        1 MOL      0.047464
    108 H49         3.3260   -2.0760    2.8810 hc        1 MOL      0.047464
    109 H50         0.4740   -3.1310    6.1180 hc        1 MOL      0.079380
    110 H51         1.4580   -1.8560    6.1420 hc        1 MOL      0.079380
    111 H52        -0.3180   -1.5710    6.0080 hc        1 MOL      0.079380
    112 N10         2.2940   -2.7820   -0.2520 n         1 MOL     -0.110423
    113 C35         3.3970   -3.0630   -1.1980 c3        1 MOL     -0.020677
    114 C36         4.7950   -2.6350   -0.6340 c         1 MOL      0.382581
    115 O17         4.8900   -2.2120    0.5240 o         1 MOL     -0.374328
    116 C37         3.2530   -2.1970   -2.5230 c3        1 MOL      0.221123
    117 C38         2.0590   -2.7410   -3.3580 c3        1 MOL     -0.126528
    118 O18         3.0230   -0.7930   -2.2430 oh        1 MOL     -0.692933
    119 H53         1.8340   -1.8820   -0.2400 hn        1 MOL      0.085681
    120 H54         3.5350   -4.1010   -1.5120 h1        1 MOL      0.079444
    121 H55         4.1080   -2.2840   -3.1980 h1        1 MOL      0.041605
    122 H56         2.1100   -0.6850   -1.9700 ho        1 MOL      0.423886
    123 H57         1.4330   -2.0830   -3.9450 hc        1 MOL      0.030186
    124 H58         2.4800   -3.4620   -4.0500 hc        1 MOL      0.030186
    125 H59         1.3580   -3.2720   -2.7190 hc        1 MOL      0.030186
    126 N11         5.8780   -2.8290   -1.4210 n         1 MOL     -0.252274
    127 C39         7.2440   -2.4830   -0.9880 c3        1 MOL     -0.048300
    128 C40         7.4590   -1.0110   -0.5260 c         1 MOL      0.268334
    129 O19         8.0030   -0.8160    0.5140 o         1 MOL     -0.423352
    130 C41         8.2650   -2.7230   -2.1800 c3        1 MOL      0.356819
    131 C42         9.6530   -3.0090   -1.6750 c3        1 MOL     -0.384506
    132 O20         7.9240   -3.8880   -2.8870 oh        1 MOL     -0.606860
    133 H60         5.8120   -3.2490   -2.3310 hn        1 MOL      0.207323
    134 H61         7.5470   -3.1650   -0.1930 h1        1 MOL      0.125506
    135 H62         8.2430   -1.9130   -2.9040 h1        1 MOL     -0.029869
    136 H63         8.6180   -3.9550   -3.5440 ho        1 MOL      0.393702
    137 H64         9.8390   -3.9740   -1.2030 hc        1 MOL      0.108737
    138 H65        10.3870   -2.9300   -2.4750 hc        1 MOL      0.108737
    139 H66        10.0340   -2.2740   -0.9660 hc        1 MOL      0.108737
    140 N12         6.9860   -0.0730   -1.3030 n         1 MOL     -0.208921
    141 C43         7.0570    1.3600   -0.9910 c3        1 MOL      0.013299
    142 C44         6.2910    1.8100    0.3010 c         1 MOL      0.221219
    143 O21         6.7450    2.6270    1.1480 o         1 MOL     -0.455330
    144 C45         6.7170    2.1900   -2.2310 c3        1 MOL     -0.213733
    145 C46         5.2190    2.1660   -2.5090 c3        1 MOL      0.364645
    146 C47         4.9520    2.9570   -3.7470 c3        1 MOL     -0.241950
    147 C48         3.4640    3.3370   -3.8950 c3        1 MOL      0.258097
    148 N13         3.2210    4.2750   -4.9900 n4        1 MOL     -0.442064
    149 H67         6.6320   -0.2660   -2.2300 hn        1 MOL      0.226962
    150 H68         8.0900    1.6690   -0.8310 h1        1 MOL      0.113743
    151 H69         7.1590    1.7980   -3.1540 hc        1 MOL      0.049396
    152 H70         7.0490    3.2210   -2.1170 hc        1 MOL      0.049396
    153 H71         4.7200    2.6530   -1.6710 hc        1 MOL     -0.047359
    154 H72         4.9160    1.1090   -2.5060 hc        1 MOL     -0.047359
    155 H73         5.1140    2.3640   -4.6550 hc        1 MOL      0.050511
    156 H74         5.5190    3.8810   -3.6870 hc        1 MOL      0.050511
    157 H75         3.2490    3.8390   -2.9540 hx        1 MOL      0.022769
    158 H76         2.8670    2.4270   -3.9300 hx        1 MOL      0.022769
    159 H77         3.6100    3.9750   -5.8730 hn        1 MOL      0.343915
    160 H78         2.2140    4.2330   -5.1150 hn        1 MOL      0.343915
    161 H79         3.6140    5.2020   -4.9000 hn        1 MOL      0.343915
    162 N14         5.1390    1.0840    0.5150 n         1 MOL      0.085990
    163 C49         4.2760    1.1930    1.6390 c3        1 MOL     -0.163732
    164 C50         4.9040    0.5990    2.8840 c         1 MOL      0.439642
    165 O22         4.9230    1.2100    3.9250 o         1 MOL     -0.545206
    166 C51         2.8800    0.6190    1.2260 c3        1 MOL      0.165630
    167 C52         2.0230    1.5440    0.2730 c3        1 MOL      0.068407
    168 C53         0.7860    0.9330   -0.4100 c         1 MOL      0.503878
    169 O23         0.8340   -0.2490   -0.7720 o         1 MOL     -0.618939
    170 O24        -0.1960    1.6220   -0.5100 o         1 MOL     -0.618939
    171 H80         4.8970    0.3820   -0.1750 hn        1 MOL      0.040044
    172 H81         4.2040    2.2670    1.8110 h1        1 MOL      0.077588
    173 H82         2.2490    0.3640    2.0740 hc        1 MOL     -0.003820
    174 H83         3.0740   -0.3080    0.6820 hc        1 MOL     -0.003820
    175 H84         2.7190    1.9850   -0.4510 hc        1 MOL     -0.052732
    176 H85         1.7110    2.4430    0.8050 hc        1 MOL     -0.052732
    177 N15         5.6300   -0.5170    2.7530 n         1 MOL      0.019198
    178 C54         6.5090   -1.0810    3.8040 c3        1 MOL     -0.369753
    179 H86         6.0570   -1.9860    4.2080 h1        1 MOL      0.128763
    180 H87         7.4820   -1.3220    3.3740 h1        1 MOL      0.128763
    181 H88         6.6360   -0.3510    4.6030 h1        1 MOL      0.128763
    182 H89         5.7800   -0.8450    1.8160 hn        1 MOL      0.095455
    183 Ca1        -1.8470   -0.5010   -1.3420 Ca        1 MOL      1.742758
    184 O25        -0.5540    0.4290   -3.4490 oh        1 MOL     -0.854100
    185 H90         0.0000    0.2610   -4.2080 ho        1 MOL      0.397656
    186 H91        -1.1720    1.1010   -3.7390 ho        1 MOL      0.397656
    187 O26        -1.3630   -2.4610   -2.9670 oh        1 MOL     -0.854100
    188 H92        -1.9140   -3.2500   -2.9620 ho        1 MOL      0.397656
    189 H93        -1.1440   -2.3280   -3.8940 ho        1 MOL      0.397656
@<TRIPOS>BOND
     1    1    2 1   
     2    1    4 1   
     3    1    5 1   
     4    1    6 1   
     5    2    3 2   
     6    2    7 1   
     7    7    8 1   
     8    7   15 1   
     9    8    9 1   
    10    8   11 1   
    11    8   16 1   
    12    9   10 2   
    13    9   19 1   
    14   11   12 1   
    15   11   17 1   
    16   11   18 1   
    17   12   13 1   
    18   12   14 1   
    19   19   20 1   
    20   19   28 1   
    21   20   21 1   
    22   20   23 1   
    23   20   29 1   
    24   21   22 2   
    25   21   41 1   
    26   23   24 1   
    27   23   30 1   
    28   23   31 1   
    29   24   25 1   
    30   24   32 1   
    31   24   33 1   
    32   25   26 1   
    33   25   34 1   
    34   25   35 1   
    35   26   27 1   
    36   26   36 1   
    37   26   37 1   
    38   27   38 1   
    39   27   39 1   
    40   27   40 1   
    41   41   42 1   
    42   41   49 1   
    43   42   43 1   
    44   42   45 1   
    45   42   50 1   
    46   43   44 2   
    47   43   53 1   
    48   45   46 1   
    49   45   51 1   
    50   45   52 1   
    51   46   47 1   
    52   46   48 1   
    53   53   54 1   
    54   53   57 1   
    55   54   55 1   
    56   54   58 1   
    57   54   59 1   
    58   55   56 2   
    59   55   60 1   
    60   60   61 1   
    61   60   68 1   
    62   61   62 1   
    63   61   64 1   
    64   61   69 1   
    65   62   63 2   
    66   62   72 1   
    67   64   65 1   
    68   64   70 1   
    69   64   71 1   
    70   65   66 1   
    71   65   67 1   
    72   72   73 1   
    73   72   76 1   
    74   73   74 1   
    75   73   77 1   
    76   73   78 1   
    77   74   75 2   
    78   74   79 1   
    79   79   80 1   
    80   79   86 1   
    81   80   81 1   
    82   80   83 1   
    83   80   87 1   
    84   81   82 2   
    85   81   93 1   
    86   83   84 1   
    87   83   85 1   
    88   83   88 1   
    89   84   90 1   
    90   84   91 1   
    91   84   92 1   
    92   85   89 1   
    93   93   94 1   
    94   93  101 1   
    95   94   95 1   
    96   94   97 1   
    97   94  102 1   
    98   95   96 2   
    99   95  112 1   
   100   97   98 1   
   101   97   99 1   
   102   97  103 1   
   103   98  100 1   
   104   98  104 1   
   105   98  105 1   
   106   99  106 1   
   107   99  107 1   
   108   99  108 1   
   109  100  109 1   
   110  100  110 1   
   111  100  111 1   
   112  112  113 1   
   113  112  119 1   
   114  113  114 1   
   115  113  116 1   
   116  113  120 1   
   117  114  115 2   
   118  114  126 1   
   119  116  117 1   
   120  116  118 1   
   121  116  121 1   
   122  117  123 1   
   123  117  124 1   
   124  117  125 1   
   125  118  122 1   
   126  126  127 1   
   127  126  133 1   
   128  127  128 1   
   129  127  130 1   
   130  127  134 1   
   131  128  129 2   
   132  128  140 1   
   133  130  131 1   
   134  130  132 1   
   135  130  135 1   
   136  131  137 1   
   137  131  138 1   
   138  131  139 1   
   139  132  136 1   
   140  140  141 1   
   141  140  149 1   
   142  141  142 1   
   143  141  144 1   
   144  141  150 1   
   145  142  143 2   
   146  142  162 1   
   147  144  145 1   
   148  144  151 1   
   149  144  152 1   
   150  145  146 1   
   151  145  153 1   
   152  145  154 1   
   153  146  147 1   
   154  146  155 1   
   155  146  156 1   
   156  147  148 1   
   157  147  157 1   
   158  147  158 1   
   159  148  159 1   
   160  148  160 1   
   161  148  161 1   
   162  162  163 1   
   163  162  171 1   
   164  163  164 1   
   165  163  166 1   
   166  163  172 1   
   167  164  165 2   
   168  164  177 1   
   169  166  167 1   
   170  166  173 1   
   171  166  174 1   
   172  167  168 1   
   173  167  175 1   
   174  167  176 1   
   175  168  169 1   
   176  168  170 1   
   177  177  178 1   
   178  177  182 1   
   179  178  179 1   
   180  178  180 1   
   181  178  181 1   
   182  184  185 1   
   183  184  186 1   
   184  187  188 1   
   185  187  189 1   
@<TRIPOS>SUBSTRUCTURE
     1 MOL         1 TEMP              0 ****  ****    0 ROOT
