@<TRIPOS>MOLECULE
MOL
  175   173     1     0     0
SMALL
resp


@<TRIPOS>ATOM
      1 C1          0.5150    3.7650    5.7770 c3        1 MOL     -0.441003
      2 C2          0.0550    3.7490    4.2390 c         1 MOL      0.681237
      3 O1          0.9060    3.9480    3.3390 o         1 MOL     -0.544727
      4 H1          0.6470    4.7950    6.1060 hc        1 MOL      0.108119
      5 H2         -0.2460    3.2830    6.3910 hc        1 MOL      0.108119
      6 H3          1.4580    3.2270    5.8810 hc        1 MOL      0.108119
      7 N1         -1.2130    3.4910    4.0010 n         1 MOL     -0.610288
      8 C3         -1.7990    3.2750    2.6810 c3        1 MOL      0.099556
      9 C4         -1.7800    4.5290    1.8310 c         1 MOL      0.689833
     10 O2         -1.7450    5.6200    2.4070 o         1 MOL     -0.579248
     11 C5         -3.2400    2.8380    2.9250 c3        1 MOL     -0.114153
     12 C6         -3.9620    2.5100    1.6850 c         1 MOL      0.667098
     13 O3         -3.3290    1.9670    0.7160 o         1 MOL     -0.663961
     14 O4         -5.1070    2.9250    1.4940 o         1 MOL     -0.663961
     15 H4         -1.7540    3.3800    4.8470 hn        1 MOL      0.327635
     16 H5         -1.2910    2.4440    2.1760 h1        1 MOL      0.083214
     17 H6         -3.7430    3.6350    3.4660 hc        1 MOL      0.006100
     18 H7         -3.2920    2.0130    3.6360 hc        1 MOL      0.006100
     19 N2         -1.8640    4.3690    0.4880 n         1 MOL     -0.671589
     20 C7         -2.2390    5.4410   -0.4280 c3        1 MOL      0.291793
     21 C8         -3.2660    5.0950   -1.5270 c         1 MOL      0.469795
     22 O5         -3.4000    5.9010   -2.4140 o         1 MOL     -0.571191
     23 C9         -0.9190    6.0300   -0.9180 c3        1 MOL     -0.206570
     24 H8         -1.7450    3.4490    0.0930 hn        1 MOL      0.408643
     25 H9         -2.6950    6.2590    0.1320 h1        1 MOL      0.010353
     26 H10        -0.2970    5.3230   -1.4530 hc        1 MOL      0.047980
     27 H11        -1.0330    6.9580   -1.4840 hc        1 MOL      0.047980
     28 H12        -0.2900    6.3390   -0.0790 hc        1 MOL      0.047980
     29 N3         -3.9590    3.9550   -1.4770 n         1 MOL     -0.299020
     30 C10        -4.7680    3.5110   -2.5900 c3        1 MOL     -0.041467
     31 C11        -6.0960    2.7030   -2.2530 c         1 MOL      0.333362
     32 O6         -6.8470    2.3750   -3.2040 o         1 MOL     -0.529783
     33 C12        -3.9380    2.6320   -3.5080 c3        1 MOL     -0.033243
     34 C13        -3.3150    1.5090   -2.7380 c         1 MOL      0.655725
     35 O7         -4.0610    0.7740   -2.0420 o         1 MOL     -0.719461
     36 O8         -2.1130    1.2580   -2.7170 o         1 MOL     -0.719461
     37 H13        -3.8330    3.4330   -0.6180 hn        1 MOL      0.181941
     38 H14        -4.9720    4.4040   -3.1880 h1        1 MOL      0.101273
     39 H15        -3.1330    3.1630   -4.0180 hc        1 MOL      0.029116
     40 H16        -4.5270    2.1980   -4.3160 hc        1 MOL      0.029116
     41 N4         -6.3820    2.3380   -0.9730 n         1 MOL     -0.094825
     42 C14        -7.5500    1.6070   -0.6020 c3        1 MOL     -0.348436
     43 C15        -7.5560    0.1560   -1.1210 c         1 MOL      0.567961
     44 O9         -8.5420   -0.5390   -0.9080 o         1 MOL     -0.620490
     45 H17        -5.7950    2.8000   -0.2950 hn        1 MOL      0.198309
     46 H18        -8.3960    2.0880   -1.1050 h1        1 MOL      0.137378
     47 H19        -7.6810    1.5440    0.4770 h1        1 MOL      0.137378
     48 N5         -6.4390   -0.3210   -1.6880 n         1 MOL     -0.238235
     49 C16        -6.4040   -1.7500   -2.2610 c3        1 MOL     -0.035149
     50 C17        -6.5300   -2.8950   -1.2240 c         1 MOL      0.457688
     51 O10        -6.6460   -4.0660   -1.5300 o         1 MOL     -0.559857
     52 C18        -5.1620   -1.9420   -3.1890 c3        1 MOL     -0.258226
     53 C19        -3.7930   -2.1330   -2.5310 c         1 MOL      0.515269
     54 N6         -2.7530   -2.2300   -3.3220 n         1 MOL     -0.613474
     55 O11        -3.6830   -2.1580   -1.3240 o         1 MOL     -0.041575
     56 H20        -5.6620    0.2840   -1.8810 hn        1 MOL      0.218930
     57 H21        -7.3150   -1.8620   -2.8590 h1        1 MOL      0.099682
     58 H22        -5.0630   -1.1140   -3.9000 hc        1 MOL      0.079177
     59 H23        -5.2750   -2.8210   -3.8410 hc        1 MOL      0.079177
     60 H24        -2.9720   -2.2630   -4.3090 hn        1 MOL      0.306792
     61 H25        -1.8300   -2.1550   -2.9290 hn        1 MOL      0.306792
     62 N7         -6.3170   -2.6260    0.0690 n         1 MOL     -0.234933
     63 C20        -6.3320   -3.6080    1.2290 c3        1 MOL     -0.266066
     64 C21        -4.9700   -4.2210    1.6710 c         1 MOL      0.524912
     65 O12        -4.9600   -4.9300    2.6400 o         1 MOL     -0.596564
     66 H26        -6.1200   -1.6570    0.2340 hn        1 MOL      0.240066
     67 H27        -6.9260   -4.5030    1.0770 h1        1 MOL      0.135155
     68 H28        -6.7430   -3.0690    2.0810 h1        1 MOL      0.135155
     69 N8         -3.8050   -3.9330    1.1030 n         1 MOL      0.047194
     70 C22        -2.5220   -4.5900    1.3170 c3        1 MOL     -0.374098
     71 C23        -1.3180   -3.5090    1.2780 c         1 MOL      0.562931
     72 O13        -1.4580   -2.4560    0.6640 o         1 MOL     -0.534239
     73 C24        -2.2920   -5.5520    0.1330 c3        1 MOL      0.622059
     74 C25        -3.2610   -6.7420    0.2910 c3        1 MOL     -0.494131
     75 O14        -2.4940   -4.9690   -1.2050 oh        1 MOL     -0.581005
     76 H29        -3.8300   -3.1510    0.4560 hn        1 MOL     -0.105384
     77 H30        -2.4810   -5.1010    2.2800 h1        1 MOL      0.122778
     78 H31        -1.2870   -5.9710    0.2570 h1        1 MOL     -0.072535
     79 H32        -2.7410   -4.0390   -1.1460 ho        1 MOL      0.176972
     80 H33        -2.9920   -7.5700   -0.3720 hc        1 MOL      0.117810
     81 H34        -3.3930   -7.0780    1.3170 hc        1 MOL      0.117810
     82 H35        -4.2080   -6.3450   -0.0690 hc        1 MOL      0.117810
     83 N9         -0.2200   -3.8090    1.9540 n         1 MOL     -0.276704
     84 C26         0.9790   -2.9780    1.9950 c3        1 MOL     -0.108204
     85 C27         1.8620   -3.2710    0.7800 c         1 MOL      0.407291
     86 O15         2.2800   -4.4040    0.5180 o         1 MOL     -0.554203
     87 C28         1.6040   -3.1950    3.3740 c3        1 MOL      0.285105
     88 C29         0.8390   -2.5220    4.5510 c3        1 MOL     -0.086722
     89 C30         3.1140   -2.7200    3.3980 c3        1 MOL     -0.217598
     90 C31         1.2320   -3.1390    5.9080 c3        1 MOL     -0.178339
     91 H36        -0.2290   -4.6320    2.5340 hn        1 MOL      0.233945
     92 H37         0.7620   -1.9160    1.9530 h1        1 MOL     -0.051186
     93 H38         1.6030   -4.2640    3.5200 hc        1 MOL     -0.022062
     94 H39        -0.1970   -2.8120    4.3990 hc        1 MOL      0.040180
     95 H40         1.0290   -1.4720    4.7430 hc        1 MOL      0.040180
     96 H41         3.5730   -2.9590    4.3650 hc        1 MOL      0.044025
     97 H42         3.6370   -3.3340    2.6640 hc        1 MOL      0.044025
     98 H43         3.0930   -1.6690    3.1420 hc        1 MOL      0.044025
     99 H44         1.1340   -4.2220    5.8870 hc        1 MOL      0.038344
    100 H45         2.2780   -3.0240    6.1870 hc        1 MOL      0.038344
    101 H46         0.6410   -2.6320    6.6750 hc        1 MOL      0.038344
    102 N10         2.0560   -2.1840    0.0330 n         1 MOL     -0.000796
    103 C32         2.7610   -2.1490   -1.2050 c3        1 MOL      0.032459
    104 C33         4.1980   -1.5840   -0.8340 c         1 MOL      0.244676
    105 O16         4.4010   -0.9430    0.2050 o         1 MOL     -0.190453
    106 C34         2.0090   -1.2010   -2.1800 c3        1 MOL     -0.151740
    107 C35         0.5670   -1.6350   -2.6110 c         1 MOL      0.631691
    108 O17        -0.4520   -1.3950   -1.8630 o         1 MOL     -0.641467
    109 O18         0.4360   -2.1060   -3.7870 o         1 MOL     -0.641467
    110 H47         1.8200   -1.2930    0.4440 hn        1 MOL      0.018368
    111 H48         2.8400   -3.1310   -1.6760 h1        1 MOL      0.071757
    112 H49         2.6810   -1.0450   -3.0170 hc        1 MOL      0.053030
    113 H50         1.8070   -0.2650   -1.6680 hc        1 MOL      0.053030
    114 N11         5.0930   -1.6620   -1.8370 n         1 MOL     -0.499930
    115 C36         6.4940   -1.2670   -1.6850 c3        1 MOL      0.424640
    116 C37         6.6940    0.1310   -1.0700 c         1 MOL      0.294430
    117 O19         7.3030    0.2060    0.0240 o         1 MOL     -0.526613
    118 C38         7.4420   -1.6180   -2.8440 c3        1 MOL     -0.451411
    119 C39         8.9390   -1.4700   -2.5960 ca        1 MOL      0.286081
    120 C40         9.6890   -2.5300   -2.1510 ca        1 MOL     -0.269148
    121 C41         9.6170   -0.2860   -2.7650 ca        1 MOL     -0.269148
    122 C42        11.0340   -2.4840   -1.8370 ca        1 MOL      0.008707
    123 C43        10.9890   -0.1780   -2.3810 ca        1 MOL      0.008707
    124 C44        11.7340   -1.2970   -2.0530 ca        1 MOL     -0.227894
    125 H51         4.8260   -2.2300   -2.6350 hn        1 MOL      0.317882
    126 H52         6.7990   -1.7910   -0.7770 h1        1 MOL      0.024379
    127 H53         7.1570   -0.9830   -3.6780 hc        1 MOL      0.110878
    128 H54         7.2000   -2.6610   -3.0230 hc        1 MOL      0.110878
    129 H55         9.2190   -3.4910   -1.9300 ha        1 MOL      0.124382
    130 H56         9.0650    0.5510   -3.1630 ha        1 MOL      0.124382
    131 H57        11.6150   -3.3490   -1.5750 ha        1 MOL      0.082124
    132 H58        11.5110    0.7530   -2.5650 ha        1 MOL      0.082124
    133 H59        12.7950   -1.1790   -1.8940 ha        1 MOL      0.128926
    134 N12         6.1550    1.2340   -1.5980 n         1 MOL     -0.033375
    135 C45         6.2670    2.6210   -1.0640 c3        1 MOL     -0.095296
    136 C46         5.3990    2.8800    0.2160 c         1 MOL      0.378184
    137 O20         5.3360    4.0210    0.7060 o         1 MOL     -0.529888
    138 C47         5.8670    3.6250   -2.1440 c3        1 MOL     -0.150610
    139 C48         5.7980    2.7460   -3.3580 c3        1 MOL      0.094233
    140 C49         5.4890    1.3470   -2.9180 c3        1 MOL      0.102989
    141 H60         7.2730    2.7520   -0.6580 h1        1 MOL      0.111966
    142 H61         4.8420    4.0020   -2.0710 hc        1 MOL      0.082388
    143 H62         6.5070    4.4750   -2.3250 hc        1 MOL      0.082388
    144 H63         5.0470    3.0890   -4.0760 hc        1 MOL     -0.020018
    145 H64         6.7630    2.7590   -3.8640 hc        1 MOL     -0.020018
    146 H65         4.4250    1.1120   -2.8300 h1        1 MOL     -0.004517
    147 H66         5.8570    0.6900   -3.6940 h1        1 MOL     -0.004517
    148 N13         4.7010    1.8680    0.7640 n         1 MOL     -0.097812
    149 C50         3.8800    1.8970    1.9590 c3        1 MOL      0.034432
    150 C51         4.5080    1.0800    3.0740 c         1 MOL      0.412147
    151 O21         4.5310    1.4540    4.2000 o         1 MOL     -0.545593
    152 C52         2.4730    1.4040    1.7210 c3        1 MOL      0.072279
    153 C53         1.7190    2.1420    0.6330 c3        1 MOL     -0.169844
    154 C54         0.3840    1.4870    0.4520 c         1 MOL      0.557754
    155 O22        -0.3660    1.9870   -0.3830 o         1 MOL     -0.638233
    156 O23         0.0610    0.3920    0.9840 o         1 MOL     -0.638233
    157 H67         4.6970    0.9390    0.3660 hn        1 MOL      0.006340
    158 H68         3.8550    2.8890    2.4130 h1        1 MOL      0.073306
    159 H69         1.9610    1.4740    2.6810 hc        1 MOL      0.023682
    160 H70         2.4990    0.3580    1.4110 hc        1 MOL      0.023682
    161 H71         2.3500    1.9870   -0.2430 hc        1 MOL      0.078436
    162 H72         1.6220    3.1890    0.9450 hc        1 MOL      0.078436
    163 N14         5.1450   -0.0330    2.6910 n         1 MOL     -0.056431
    164 C55         6.1670   -0.7340    3.4990 c3        1 MOL     -0.131958
    165 H73         6.3050   -0.2070    4.4440 h1        1 MOL      0.056591
    166 H74         5.8370   -1.7540    3.6980 h1        1 MOL      0.056591
    167 H75         7.1110   -0.7550    2.9540 h1        1 MOL      0.056591
    168 H76         5.0680   -0.3320    1.7310 hn        1 MOL      0.042056
    169 Ca1        -2.0470   -0.1140   -0.4960 Ca        1 MOL      1.557919
    170 O24        -4.3430   -0.7410    1.1960 oh        1 MOL     -0.779133
    171 H77        -3.6040   -0.8820    1.7950 ho        1 MOL      0.375734
    172 H78        -4.9600   -0.2010    1.6950 ho        1 MOL      0.375734
    173 O25        -1.9410   -0.4160    2.3420 oh        1 MOL     -0.779133
    174 H79        -1.0580   -0.0680    2.1860 ho        1 MOL      0.375734
    175 H80        -2.0300   -0.4210    3.2990 ho        1 MOL      0.375734
@<TRIPOS>BOND
     1    1    2 1   
     2    1    4 1   
     3    1    5 1   
     4    1    6 1   
     5    2    3 2   
     6    2    7 1   
     7    7    8 1   
     8    7   15 1   
     9    8    9 1   
    10    8   11 1   
    11    8   16 1   
    12    9   10 2   
    13    9   19 1   
    14   11   12 1   
    15   11   17 1   
    16   11   18 1   
    17   12   13 1   
    18   12   14 1   
    19   19   20 1   
    20   19   24 1   
    21   20   21 1   
    22   20   23 1   
    23   20   25 1   
    24   21   22 2   
    25   21   29 1   
    26   23   26 1   
    27   23   27 1   
    28   23   28 1   
    29   29   30 1   
    30   29   37 1   
    31   30   31 1   
    32   30   33 1   
    33   30   38 1   
    34   31   32 2   
    35   31   41 1   
    36   33   34 1   
    37   33   39 1   
    38   33   40 1   
    39   34   35 1   
    40   34   36 1   
    41   41   42 1   
    42   41   45 1   
    43   42   43 1   
    44   42   46 1   
    45   42   47 1   
    46   43   44 2   
    47   43   48 1   
    48   48   49 1   
    49   48   56 1   
    50   49   50 1   
    51   49   52 1   
    52   49   57 1   
    53   50   51 2   
    54   50   62 1   
    55   52   53 1   
    56   52   58 1   
    57   52   59 1   
    58   53   54 1   
    59   53   55 2   
    60   54   60 1   
    61   54   61 1   
    62   62   63 1   
    63   62   66 1   
    64   63   64 1   
    65   63   67 1   
    66   63   68 1   
    67   64   65 2   
    68   64   69 1   
    69   69   70 1   
    70   69   76 1   
    71   70   71 1   
    72   70   73 1   
    73   70   77 1   
    74   71   72 2   
    75   71   83 1   
    76   73   74 1   
    77   73   75 1   
    78   73   78 1   
    79   74   80 1   
    80   74   81 1   
    81   74   82 1   
    82   75   79 1   
    83   83   84 1   
    84   83   91 1   
    85   84   85 1   
    86   84   87 1   
    87   84   92 1   
    88   85   86 2   
    89   85  102 1   
    90   87   88 1   
    91   87   89 1   
    92   87   93 1   
    93   88   90 1   
    94   88   94 1   
    95   88   95 1   
    96   89   96 1   
    97   89   97 1   
    98   89   98 1   
    99   90   99 1   
   100   90  100 1   
   101   90  101 1   
   102  102  103 1   
   103  102  110 1   
   104  103  104 1   
   105  103  106 1   
   106  103  111 1   
   107  104  105 2   
   108  104  114 1   
   109  106  107 1   
   110  106  112 1   
   111  106  113 1   
   112  107  108 1   
   113  107  109 1   
   114  114  115 1   
   115  114  125 1   
   116  115  116 1   
   117  115  118 1   
   118  115  126 1   
   119  116  117 2   
   120  116  134 1   
   121  118  119 1   
   122  118  127 1   
   123  118  128 1   
   124  119  120 ar  
   125  119  121 ar  
   126  120  122 ar  
   127  120  129 1   
   128  121  123 ar  
   129  121  130 1   
   130  122  124 ar  
   131  122  131 1   
   132  123  124 ar  
   133  123  132 1   
   134  124  133 1   
   135  134  135 1   
   136  134  140 1   
   137  135  136 1   
   138  135  138 1   
   139  135  141 1   
   140  136  137 2   
   141  136  148 1   
   142  138  139 1   
   143  138  142 1   
   144  138  143 1   
   145  139  140 1   
   146  139  144 1   
   147  139  145 1   
   148  140  146 1   
   149  140  147 1   
   150  148  149 1   
   151  148  157 1   
   152  149  150 1   
   153  149  152 1   
   154  149  158 1   
   155  150  151 2   
   156  150  163 1   
   157  152  153 1   
   158  152  159 1   
   159  152  160 1   
   160  153  154 1   
   161  153  161 1   
   162  153  162 1   
   163  154  155 1   
   164  154  156 1   
   165  163  164 1   
   166  163  168 1   
   167  164  165 1   
   168  164  166 1   
   169  164  167 1   
   170  170  171 1   
   171  170  172 1   
   172  173  174 1   
   173  173  175 1   
@<TRIPOS>SUBSTRUCTURE
     1 MOL         1 TEMP              0 ****  ****    0 ROOT
