@<TRIPOS>MOLECULE
MOL
  182   178     1     0     0
SMALL
resp


@<TRIPOS>ATOM
      1 C1          0.3700    3.7170    6.4260 c3        1 MOL     -0.346744
      2 C2          0.3660    3.1120    5.0600 c         1 MOL      0.806997
      3 O1          1.3420    3.1270    4.3500 o         1 MOL     -0.599368
      4 H1          1.3930    3.9610    6.7120 hc        1 MOL      0.087867
      5 H2         -0.2330    4.6250    6.4240 hc        1 MOL      0.087867
      6 H3         -0.0470    3.0050    7.1400 hc        1 MOL      0.087867
      7 N1         -0.8090    2.6550    4.6150 n         1 MOL     -0.705707
      8 C3         -1.0070    2.4490    3.1720 c3        1 MOL     -0.005720
      9 C4         -0.9830    3.7620    2.3600 c         1 MOL      0.582510
     10 O2         -1.6120    4.7880    2.6580 o         1 MOL     -0.522396
     11 C5         -2.3040    1.7740    3.1260 c3        1 MOL     -0.035458
     12 C6         -2.7540    1.1310    1.7770 c         1 MOL      0.404572
     13 O3         -3.5680    0.1900    1.7880 o         1 MOL     -0.595825
     14 O4         -2.2410    1.5410    0.7640 o         1 MOL     -0.595825
     15 H4         -1.6740    2.8380    5.1050 hn        1 MOL      0.352141
     16 H5         -0.2020    1.8120    2.7950 h1        1 MOL      0.070095
     17 H6         -3.0290    2.5200    3.4640 hc        1 MOL      0.051819
     18 H7         -2.4680    0.9700    3.8480 hc        1 MOL      0.051819
     19 N2         -0.2880    3.7040    1.2430 n         1 MOL     -0.346462
     20 C7         -0.1200    4.8710    0.4560 c3        1 MOL     -0.027088
     21 C8         -1.3810    5.3300   -0.2910 c         1 MOL      0.345767
     22 O5         -1.7590    6.5340   -0.1840 o         1 MOL     -0.530484
     23 C9          1.0940    4.7290   -0.4670 c3        1 MOL      0.089379
     24 C10         1.4960    5.8590   -1.3800 c3        1 MOL     -0.202125
     25 C11         2.7190    5.5230   -2.2610 c3        1 MOL      0.123255
     26 C12         3.4490    6.7680   -2.6950 c3        1 MOL     -0.042614
     27 N3          4.3800    6.4110   -3.8100 n4        1 MOL     -0.230604
     28 H8          0.2290    2.8520    1.1040 hn        1 MOL      0.236203
     29 H9          0.0710    5.7160    1.1180 h1        1 MOL      0.099486
     30 H10         0.8420    3.8450   -1.0730 hc        1 MOL      0.039947
     31 H11         1.9000    4.5010    0.2210 hc        1 MOL      0.039947
     32 H12         1.7270    6.7070   -0.7420 hc        1 MOL      0.059747
     33 H13         0.6110    6.0550   -1.9920 hc        1 MOL      0.059747
     34 H14         2.4460    4.9880   -3.1640 hc        1 MOL     -0.001680
     35 H15         3.4080    4.8980   -1.6960 hc        1 MOL     -0.001680
     36 H16         4.1840    7.0170   -1.9300 hx        1 MOL      0.110399
     37 H17         2.8440    7.6010   -3.0670 hx        1 MOL      0.110399
     38 H18         4.8000    7.2910   -4.0280 hn        1 MOL      0.290480
     39 H19         5.1690    5.8090   -3.6700 hn        1 MOL      0.290480
     40 H20         3.9320    6.0890   -4.6580 hn        1 MOL      0.290480
     41 N4         -2.0290    4.4560   -1.0090 n         1 MOL     -0.191452
     42 C13        -3.3060    4.7610   -1.6710 c3        1 MOL      0.097487
     43 C14        -4.5750    4.3750   -0.8180 c         1 MOL      0.411108
     44 O6         -5.6960    4.7690   -1.0580 o         1 MOL     -0.506543
     45 C15        -3.3400    4.1390   -3.0510 c3        1 MOL     -0.436318
     46 C16        -3.1470    2.6410   -3.1590 c         1 MOL      0.847050
     47 O7         -2.8810    1.9940   -2.1570 o         1 MOL     -0.725900
     48 O8         -3.1790    2.1310   -4.3320 o         1 MOL     -0.725900
     49 H21        -1.6850    3.5230   -1.1680 hn        1 MOL      0.173679
     50 H22        -3.3570    5.8300   -1.8500 h1        1 MOL      0.080983
     51 H23        -2.6410    4.7240   -3.6510 hc        1 MOL      0.116865
     52 H24        -4.3450    4.2940   -3.4330 hc        1 MOL      0.116865
     53 N5         -4.2920    3.4980    0.1850 n         1 MOL     -0.092234
     54 C17        -5.3120    3.0990    1.1410 c3        1 MOL     -0.243084
     55 C18        -6.3320    2.0420    0.7210 c         1 MOL      0.537131
     56 O9         -7.4630    1.9380    1.2500 o         1 MOL     -0.539079
     57 H25        -3.3630    3.0920    0.2040 hn        1 MOL      0.151003
     58 H26        -5.9150    3.9590    1.4380 h1        1 MOL      0.111859
     59 H27        -4.7580    2.7060    1.9940 h1        1 MOL      0.111859
     60 N6         -5.8710    1.1500   -0.1760 n         1 MOL     -0.270717
     61 C19        -6.7530    0.0970   -0.8070 c3        1 MOL      0.052553
     62 C20        -7.1370   -1.0730    0.0550 c         1 MOL      0.393782
     63 O10        -8.2590   -1.6410    0.0010 o         1 MOL     -0.510185
     64 C21        -6.0040   -0.3140   -2.0290 c3        1 MOL     -0.360867
     65 C22        -4.9670   -1.3720   -1.7730 c         1 MOL      0.647382
     66 N7         -5.2330   -2.5410   -2.1680 n         1 MOL     -0.692601
     67 O11        -3.9550   -1.0880   -1.1260 o         1 MOL     -0.708664
     68 H28        -4.9010    1.2730   -0.4140 hn        1 MOL      0.199678
     69 H29        -7.7070    0.5430   -1.0950 h1        1 MOL      0.110560
     70 H30        -5.4730    0.5410   -2.4450 hc        1 MOL      0.124272
     71 H31        -6.7450   -0.6660   -2.7560 hc        1 MOL      0.124272
     72 H32        -6.0370   -2.6800   -2.7530 hn        1 MOL      0.338041
     73 H33        -4.6910   -3.3750   -1.9880 hn        1 MOL      0.338041
     74 N8         -6.2330   -1.3660    1.0500 n         1 MOL     -0.152941
     75 C23        -6.3500   -2.6110    1.8920 c3        1 MOL     -0.213519
     76 C24        -5.0920   -3.4680    2.1020 c         1 MOL      0.455676
     77 O12        -5.0670   -4.2960    3.0440 o         1 MOL     -0.534503
     78 H34        -5.3680   -0.8680    1.1420 hn        1 MOL      0.174010
     79 H35        -7.1740   -3.2540    1.5730 h1        1 MOL      0.128817
     80 H36        -6.4490   -2.2230    2.8990 h1        1 MOL      0.128817
     81 N9         -3.9580   -3.0100    1.5500 n         1 MOL     -0.260059
     82 C25        -2.6530   -3.6960    1.7590 c3        1 MOL     -0.066129
     83 C26        -1.4070   -2.9570    1.3220 c         1 MOL      0.555989
     84 O13        -1.3520   -2.2020    0.3500 o         1 MOL     -0.515886
     85 C27        -2.5240   -5.1280    1.2250 c3        1 MOL     -0.035388
     86 C28        -3.1100   -5.3210   -0.2110 ca        1 MOL      0.036786
     87 C29        -2.3720   -5.1170   -1.3730 ca        1 MOL     -0.158730
     88 C30        -4.4210   -5.6540   -0.2920 ca        1 MOL     -0.158730
     89 C31        -2.9620   -5.1990   -2.6790 ca        1 MOL     -0.244604
     90 C32        -5.0500   -5.7390   -1.5740 ca        1 MOL     -0.244604
     91 C33        -4.3610   -5.5690   -2.8030 ca        1 MOL      0.325338
     92 O14        -5.0090   -5.7230   -3.9590 oh        1 MOL     -0.488153
     93 H37        -4.0200   -2.1750    0.9730 hn        1 MOL      0.274461
     94 H38        -2.4540   -3.7440    2.8330 h1        1 MOL      0.097554
     95 H39        -2.9780   -5.7880    1.9540 hc        1 MOL      0.047243
     96 H40        -1.4680   -5.3730    1.3030 hc        1 MOL      0.047243
     97 H41        -1.3290   -4.8390   -1.2690 ha        1 MOL      0.151304
     98 H42        -5.0250   -5.7590    0.6030 ha        1 MOL      0.151304
     99 H43        -2.3160   -5.1160   -3.5470 ha        1 MOL      0.143501
    100 H44        -6.1170   -5.8640   -1.6510 ha        1 MOL      0.143501
    101 H45        -5.9710   -5.7690   -3.9210 ho        1 MOL      0.368071
    102 N10        -0.3020   -3.2850    1.9680 n         1 MOL     -0.379094
    103 C34         1.0800   -2.7540    1.6290 c3        1 MOL     -0.155099
    104 C35         2.1580   -3.8340    1.2160 c         1 MOL      0.599729
    105 O15         2.2290   -4.9610    1.6250 o         1 MOL     -0.521587
    106 C36         1.6180   -1.9240    2.8810 c3        1 MOL     -0.067484
    107 C37         1.7320   -2.7530    4.1600 c3        1 MOL     -0.001529
    108 C38         0.9470   -0.5830    2.9840 c3        1 MOL     -0.140763
    109 C39         2.3180   -1.9290    5.3190 c3        1 MOL     -0.180949
    110 H46        -0.4500   -3.9440    2.7180 hn        1 MOL      0.252635
    111 H47         1.0430   -1.9670    0.8810 h1        1 MOL      0.144561
    112 H48         2.6550   -1.6350    2.6930 hc        1 MOL      0.025492
    113 H49         2.2930   -3.6730    3.9540 hc        1 MOL      0.039575
    114 H50         0.7270   -3.0750    4.4390 hc        1 MOL      0.039575
    115 H51         1.4520    0.0150    3.7460 hc        1 MOL      0.073992
    116 H52         0.9200   -0.0230    2.0590 hc        1 MOL      0.073992
    117 H53        -0.0460   -0.8140    3.3750 hc        1 MOL      0.073992
    118 H54         3.2640   -1.4850    4.9820 hc        1 MOL      0.049100
    119 H55         1.5850   -1.2890    5.7950 hc        1 MOL      0.049100
    120 H56         2.5030   -2.6570    6.1090 hc        1 MOL      0.049100
    121 N11         3.0790   -3.3180    0.3290 n         1 MOL     -0.308202
    122 C40         4.2510   -3.9870   -0.2500 c3        1 MOL     -0.232761
    123 C41         5.5740   -3.2120   -0.0500 c         1 MOL      0.624598
    124 O16         5.5200   -2.0740    0.4210 o         1 MOL     -0.520464
    125 C42         4.0290   -4.1570   -1.8080 c3        1 MOL      0.186133
    126 O17         3.7560   -2.9050   -2.5130 oh        1 MOL     -0.566048
    127 H57         2.9540   -2.4070   -0.0910 hn        1 MOL      0.288840
    128 H58         4.2980   -4.9580    0.2560 h1        1 MOL      0.117509
    129 H59         3.4440   -5.0160   -2.1480 h1        1 MOL      0.017863
    130 H60         5.0310   -4.3840   -2.1710 h1        1 MOL      0.017863
    131 H61         3.0960   -2.5100   -1.9360 ho        1 MOL      0.385631
    132 N12         6.7750   -3.7310   -0.3580 n         1 MOL     -0.457104
    133 C43         8.0960   -3.1720   -0.0080 c3        1 MOL      0.098311
    134 C44         8.2480   -1.7720   -0.5850 c         1 MOL      0.505491
    135 O18         8.8150   -0.8750    0.0470 o         1 MOL     -0.519041
    136 C45         9.1870   -4.1500   -0.5230 c3        1 MOL     -0.506070
    137 H62         6.7910   -4.6960   -0.6600 hn        1 MOL      0.284532
    138 H63         8.1670   -3.0660    1.0830 h1        1 MOL      0.099450
    139 H64         9.2040   -5.0600    0.0750 hc        1 MOL      0.156420
    140 H65         8.8550   -4.5680   -1.4700 hc        1 MOL      0.156420
    141 H66        10.1690   -3.6700   -0.4230 hc        1 MOL      0.156420
    142 N13         7.7670   -1.4730   -1.7910 n         1 MOL     -0.441669
    143 C46         7.7190   -0.1410   -2.4570 c3        1 MOL      0.152798
    144 C47         6.9960    0.8750   -1.6110 c         1 MOL      0.278323
    145 O19         7.3480    2.1060   -1.7090 o         1 MOL     -0.533434
    146 C48         7.0010   -0.3400   -3.8170 c3        1 MOL     -0.244698
    147 H67         7.3610   -2.2320   -2.3140 hn        1 MOL      0.271374
    148 H68         8.7070    0.2690   -2.6400 h1        1 MOL      0.091118
    149 H69         6.9470    0.5810   -4.3930 hc        1 MOL      0.072275
    150 H70         7.5460   -1.0820   -4.4000 hc        1 MOL      0.072275
    151 H71         6.0010   -0.7510   -3.6650 hc        1 MOL      0.072275
    152 N14         6.0450    0.4720   -0.8100 n         1 MOL     -0.017641
    153 C49         5.2080    1.2860    0.1440 c3        1 MOL     -0.261067
    154 C50         5.9530    1.5850    1.4160 c         1 MOL      0.572185
    155 O20         5.8180    2.7150    1.9120 o         1 MOL     -0.559605
    156 C51         3.8510    0.6840    0.4790 c3        1 MOL      0.064842
    157 C52         3.1050    0.7680   -0.8800 c3        1 MOL      0.212657
    158 C53         1.9160   -0.1560   -0.8610 c         1 MOL      0.648747
    159 O21         2.1130   -1.3050   -1.2210 o         1 MOL     -0.729634
    160 O22         0.8230    0.2800   -0.4420 o         1 MOL     -0.729634
    161 H72         5.7050   -0.4710   -0.9780 hn        1 MOL      0.168481
    162 H73         5.1040    2.2770   -0.3030 h1        1 MOL      0.105922
    163 H74         3.2890    1.2790    1.2050 hc        1 MOL      0.009061
    164 H75         3.8480   -0.3670    0.7720 hc        1 MOL      0.009061
    165 H76         3.6410    0.5000   -1.7880 hc        1 MOL     -0.100552
    166 H77         2.7070    1.7820   -1.0010 hc        1 MOL     -0.100552
    167 N15         6.7700    0.6920    1.9810 n         1 MOL     -0.211007
    168 C54         7.7260    1.0110    3.0160 c3        1 MOL     -0.239430
    169 H78         8.5110    0.2550    3.0310 h1        1 MOL      0.103374
    170 H79         8.1670    1.9880    2.8140 h1        1 MOL      0.103374
    171 H80         7.2220    1.0320    3.9820 h1        1 MOL      0.103374
    172 H81         6.6580   -0.2930    1.7640 hn        1 MOL      0.223588
    173 Ca1        -1.6010   -0.0290   -1.2790 Ca        1 MOL      1.713901
    174 O23        -0.0700    1.5790   -2.8370 oh        1 MOL     -0.809893
    175 H82        -0.2690    1.6970   -3.7620 ho        1 MOL      0.387114
    176 H83         0.8550    1.8370   -2.7580 ho        1 MOL      0.387114
    177 O24        -2.7370   -0.3840   -3.8420 oh        1 MOL     -0.809893
    178 H84        -2.9270    0.5290   -4.0540 ho        1 MOL      0.387114
    179 H85        -3.3070   -0.8870   -4.4160 ho        1 MOL      0.387114
    180 O25        -0.1140   -2.3040   -2.5550 oh        1 MOL     -0.809893
    181 H86         0.6550   -2.1380   -2.0020 ho        1 MOL      0.387114
    182 H87         0.1240   -1.9470   -3.4110 ho        1 MOL      0.387114
@<TRIPOS>BOND
     1    1    2 1   
     2    1    4 1   
     3    1    5 1   
     4    1    6 1   
     5    2    3 2   
     6    2    7 1   
     7    7    8 1   
     8    7   15 1   
     9    8    9 1   
    10    8   11 1   
    11    8   16 1   
    12    9   10 2   
    13    9   19 1   
    14   11   12 1   
    15   11   17 1   
    16   11   18 1   
    17   12   13 1   
    18   12   14 1   
    19   19   20 1   
    20   19   28 1   
    21   20   21 1   
    22   20   23 1   
    23   20   29 1   
    24   21   22 2   
    25   21   41 1   
    26   23   24 1   
    27   23   30 1   
    28   23   31 1   
    29   24   25 1   
    30   24   32 1   
    31   24   33 1   
    32   25   26 1   
    33   25   34 1   
    34   25   35 1   
    35   26   27 1   
    36   26   36 1   
    37   26   37 1   
    38   27   38 1   
    39   27   39 1   
    40   27   40 1   
    41   41   42 1   
    42   41   49 1   
    43   42   43 1   
    44   42   45 1   
    45   42   50 1   
    46   43   44 2   
    47   43   53 1   
    48   45   46 1   
    49   45   51 1   
    50   45   52 1   
    51   46   47 1   
    52   46   48 1   
    53   53   54 1   
    54   53   57 1   
    55   54   55 1   
    56   54   58 1   
    57   54   59 1   
    58   55   56 2   
    59   55   60 1   
    60   60   61 1   
    61   60   68 1   
    62   61   62 1   
    63   61   64 1   
    64   61   69 1   
    65   62   63 2   
    66   62   74 1   
    67   64   65 1   
    68   64   70 1   
    69   64   71 1   
    70   65   66 1   
    71   65   67 2   
    72   66   72 1   
    73   66   73 1   
    74   74   75 1   
    75   74   78 1   
    76   75   76 1   
    77   75   79 1   
    78   75   80 1   
    79   76   77 2   
    80   76   81 1   
    81   81   82 1   
    82   81   93 1   
    83   82   83 1   
    84   82   85 1   
    85   82   94 1   
    86   83   84 2   
    87   83  102 1   
    88   85   86 1   
    89   85   95 1   
    90   85   96 1   
    91   86   87 ar  
    92   86   88 ar  
    93   87   89 ar  
    94   87   97 1   
    95   88   90 ar  
    96   88   98 1   
    97   89   91 ar  
    98   89   99 1   
    99   90   91 ar  
   100   90  100 1   
   101   91   92 1   
   102   92  101 1   
   103  102  103 1   
   104  102  110 1   
   105  103  104 1   
   106  103  106 1   
   107  103  111 1   
   108  104  105 2   
   109  104  121 1   
   110  106  107 1   
   111  106  108 1   
   112  106  112 1   
   113  107  109 1   
   114  107  113 1   
   115  107  114 1   
   116  108  115 1   
   117  108  116 1   
   118  108  117 1   
   119  109  118 1   
   120  109  119 1   
   121  109  120 1   
   122  121  122 1   
   123  121  127 1   
   124  122  123 1   
   125  122  125 1   
   126  122  128 1   
   127  123  124 2   
   128  123  132 1   
   129  125  126 1   
   130  125  129 1   
   131  125  130 1   
   132  126  131 1   
   133  132  133 1   
   134  132  137 1   
   135  133  134 1   
   136  133  136 1   
   137  133  138 1   
   138  134  135 2   
   139  134  142 1   
   140  136  139 1   
   141  136  140 1   
   142  136  141 1   
   143  142  143 1   
   144  142  147 1   
   145  143  144 1   
   146  143  146 1   
   147  143  148 1   
   148  144  145 2   
   149  144  152 1   
   150  146  149 1   
   151  146  150 1   
   152  146  151 1   
   153  152  153 1   
   154  152  161 1   
   155  153  154 1   
   156  153  156 1   
   157  153  162 1   
   158  154  155 2   
   159  154  167 1   
   160  156  157 1   
   161  156  163 1   
   162  156  164 1   
   163  157  158 1   
   164  157  165 1   
   165  157  166 1   
   166  158  159 1   
   167  158  160 1   
   168  167  168 1   
   169  167  172 1   
   170  168  169 1   
   171  168  170 1   
   172  168  171 1   
   173  174  175 1   
   174  174  176 1   
   175  177  178 1   
   176  177  179 1   
   177  180  181 1   
   178  180  182 1   
@<TRIPOS>SUBSTRUCTURE
     1 MOL         1 TEMP              0 ****  ****    0 ROOT
