@<TRIPOS>MOLECULE
MOL
  189   185     1     0     0
SMALL
resp


@<TRIPOS>ATOM
      1 C1         -0.2990    4.3540    5.7800 c3        1 MOL     -0.465028
      2 C2         -0.8490    3.7320    4.5070 c         1 MOL      0.726223
      3 O1         -1.1950    2.5380    4.5770 o         1 MOL     -0.609351
      4 H1         -1.0520    5.0090    6.2190 hc        1 MOL      0.125784
      5 H2         -0.0460    3.5650    6.4900 hc        1 MOL      0.125784
      6 H3          0.5940    4.9320    5.5460 hc        1 MOL      0.125784
      7 N1         -1.1700    4.4320    3.4170 n         1 MOL     -0.598957
      8 C3         -1.8960    3.9980    2.2240 c3        1 MOL      0.292381
      9 C4         -1.7310    4.9530    1.0790 c         1 MOL      0.442214
     10 O2         -2.0640    6.1360    1.1960 o         1 MOL     -0.583261
     11 C5         -3.3800    3.8140    2.5540 c3        1 MOL     -0.209507
     12 C6         -4.2260    3.2280    1.4020 c         1 MOL      0.682384
     13 O3         -5.4210    3.4900    1.4380 o         1 MOL     -0.660725
     14 O4         -3.6570    2.5350    0.5140 o         1 MOL     -0.660725
     15 H4         -0.9230    5.4160    3.3740 hn        1 MOL      0.285636
     16 H5         -1.4590    3.0290    1.9460 h1        1 MOL      0.042967
     17 H6         -3.7760    4.7370    2.9810 hc        1 MOL      0.043938
     18 H7         -3.4580    3.1460    3.4100 hc        1 MOL      0.043938
     19 N2         -1.2090    4.4190   -0.0190 n         1 MOL     -0.107570
     20 C7         -0.9270    5.1920   -1.2220 c3        1 MOL     -0.049209
     21 C8         -2.0360    4.9910   -2.2970 c         1 MOL      0.522075
     22 O5         -2.1970    5.8570   -3.1520 o         1 MOL     -0.585120
     23 C9          0.4300    4.7390   -1.7830 c3        1 MOL      0.167177
     24 C10         1.5830    5.2460   -0.8690 c3        1 MOL     -0.064269
     25 C11         0.6180    4.9690   -3.3170 c3        1 MOL     -0.213190
     26 C12         2.9140    4.6780   -1.1970 c3        1 MOL     -0.169014
     27 H8         -0.9490    3.4460   -0.0270 hn        1 MOL     -0.088207
     28 H9         -0.9220    6.2650   -1.0310 h1        1 MOL      0.055362
     29 H10         0.4140    3.6460   -1.7100 hc        1 MOL      0.064848
     30 H11         1.2720    4.9530    0.1310 hc        1 MOL      0.008432
     31 H12         1.6490    6.3320   -0.8660 hc        1 MOL      0.008432
     32 H13        -0.1650    4.5140   -3.9320 hc        1 MOL      0.039127
     33 H14         0.5220    6.0330   -3.5390 hc        1 MOL      0.039127
     34 H15         1.5770    4.5780   -3.6500 hc        1 MOL      0.039127
     35 H16         3.3160    5.0920   -2.1240 hc        1 MOL      0.053242
     36 H17         3.6560    5.0460   -0.4950 hc        1 MOL      0.053242
     37 H18         2.8930    3.6000   -1.3170 hc        1 MOL      0.053242
     38 N3         -2.7740    3.8900   -2.2830 n         1 MOL     -0.333128
     39 C13        -3.6570    3.4200   -3.3710 c3        1 MOL     -0.102828
     40 C14        -5.0330    2.8330   -3.0510 c         1 MOL      0.367120
     41 O6         -5.7900    2.3830   -3.9180 o         1 MOL     -0.520500
     42 C15        -2.9410    2.3830   -4.2050 c3        1 MOL     -0.088999
     43 C16        -2.2880    1.2330   -3.3960 c         1 MOL      0.664963
     44 O7         -2.6000    1.1160   -2.1790 o         1 MOL     -0.695403
     45 O8         -1.3960    0.5040   -3.9340 o         1 MOL     -0.695403
     46 H19        -2.4490    3.2310   -1.5900 hn        1 MOL      0.307386
     47 H20        -3.8480    4.2710   -4.0250 h1        1 MOL      0.124388
     48 H21        -2.1140    2.7380   -4.8070 hc        1 MOL      0.042175
     49 H22        -3.5270    1.9520   -5.0170 hc        1 MOL      0.042175
     50 N4         -5.3870    2.7520   -1.7450 n         1 MOL     -0.017462
     51 C17        -6.7780    2.6670   -1.3620 c3        1 MOL     -0.098594
     52 C18        -7.4140    1.2140   -1.5470 c         1 MOL      0.418932
     53 O9         -8.5900    1.0120   -1.8230 o         1 MOL     -0.572257
     54 H23        -4.6810    3.0100   -1.0660 hn        1 MOL      0.065769
     55 H24        -7.3470    3.3890   -1.9590 h1        1 MOL      0.071477
     56 H25        -6.9460    2.9800   -0.3320 h1        1 MOL      0.071477
     57 N5         -6.5720    0.1800   -1.4440 n         1 MOL     -0.231830
     58 C19        -6.7790   -1.1740   -1.8960 c3        1 MOL      0.015463
     59 C20        -7.0920   -2.2160   -0.8340 c         1 MOL      0.288271
     60 O10        -7.4940   -3.3380   -1.1610 o         1 MOL     -0.501154
     61 C21        -5.6870   -1.6720   -2.8370 c3        1 MOL      0.030755
     62 C22        -4.2700   -1.8320   -2.2580 c         1 MOL      0.577859
     63 O11        -3.9730   -1.3520   -1.1440 o         1 MOL     -0.630528
     64 O12        -3.5550   -2.5630   -2.9390 o         1 MOL     -0.630528
     65 H26        -5.6060    0.4410   -1.3000 hn        1 MOL      0.140171
     66 H27        -7.6350   -1.1450   -2.5710 h1        1 MOL      0.111536
     67 H28        -5.7920   -1.1050   -3.7510 hc        1 MOL      0.014368
     68 H29        -6.0360   -2.6410   -3.2090 hc        1 MOL      0.014368
     69 N6         -6.9600   -1.8990    0.4830 n         1 MOL     -0.139486
     70 C23        -7.2770   -2.8270    1.6230 c3        1 MOL     -0.216167
     71 C24        -6.2040   -3.8210    1.9980 c         1 MOL      0.596054
     72 O13        -6.5340   -4.7640    2.6790 o         1 MOL     -0.563526
     73 H30        -6.6870   -0.9630    0.7540 hn        1 MOL      0.200388
     74 H31        -8.1140   -3.3750    1.1790 h1        1 MOL      0.100726
     75 H32        -7.7280   -2.2520    2.4310 h1        1 MOL      0.100726
     76 N7         -4.9080   -3.6750    1.5540 n         1 MOL     -0.304325
     77 C25        -3.7190   -4.5000    1.8140 c3        1 MOL      0.016994
     78 C26        -2.4910   -3.5200    1.9660 c         1 MOL      0.432176
     79 O14        -2.5650   -2.4100    1.5410 o         1 MOL     -0.417219
     80 C27        -3.5650   -5.5370    0.6330 c3        1 MOL     -0.146252
     81 C28        -3.4010   -4.8060   -0.7620 c3        1 MOL      0.180251
     82 C29        -3.4990   -5.8340   -1.8820 c         1 MOL      0.516368
     83 N8         -3.3490   -5.3500   -3.1140 n         1 MOL     -0.700992
     84 O15        -3.6030   -7.0380   -1.6930 o         1 MOL     -0.599311
     85 H33        -4.6900   -2.8720    0.9920 hn        1 MOL      0.148532
     86 H34        -3.8690   -5.1230    2.6930 h1        1 MOL      0.051539
     87 H35        -4.4100   -6.2170    0.6180 hc        1 MOL      0.049708
     88 H36        -2.6090   -6.0300    0.8340 hc        1 MOL      0.049708
     89 H37        -2.4620   -4.2900   -0.9100 hc        1 MOL     -0.003824
     90 H38        -4.1960   -4.0830   -0.8760 hc        1 MOL     -0.003824
     91 H39        -3.2650   -4.3590   -3.2910 hn        1 MOL      0.325352
     92 H40        -3.5260   -6.0800   -3.7940 hn        1 MOL      0.325352
     93 N9         -1.3070   -3.8840    2.5410 n         1 MOL     -0.621616
     94 C30        -0.1340   -2.9250    2.7540 c3        1 MOL      0.273737
     95 C31         0.9610   -3.3600    1.8280 c         1 MOL      0.645694
     96 O16         1.3480   -4.4770    1.6900 o         1 MOL     -0.612542
     97 C32         0.2940   -2.8800    4.2240 c3        1 MOL      0.191644
     98 C33         1.0440   -4.1550    4.5990 c3        1 MOL     -0.301523
     99 C34         1.0960   -1.6650    4.6610 c3        1 MOL     -0.301523
    100 H41        -1.1090   -4.8670    2.6760 hn        1 MOL      0.351135
    101 H42        -0.3690   -1.9140    2.4200 h1        1 MOL     -0.032952
    102 H43        -0.6190   -2.8740    4.8050 hc        1 MOL     -0.015001
    103 H44         2.0920   -4.2760    4.3160 hc        1 MOL      0.057394
    104 H45         1.0690   -4.1780    5.6920 hc        1 MOL      0.057394
    105 H46         0.4840   -4.9850    4.1600 hc        1 MOL      0.057394
    106 H47         0.5080   -0.7490    4.7420 hc        1 MOL      0.057394
    107 H48         1.5390   -1.9560    5.6150 hc        1 MOL      0.057394
    108 H49         1.9190   -1.5130    3.9550 hc        1 MOL      0.057394
    109 N10         1.4640   -2.3830    1.0600 n         1 MOL     -0.385134
    110 C35         2.5790   -2.5080    0.1480 c3        1 MOL      0.175577
    111 C36         3.9670   -2.2430    0.8460 c         1 MOL      0.197438
    112 O17         3.9530   -1.6650    1.9400 o         1 MOL     -0.376688
    113 C37         2.2770   -1.6430   -1.1100 c3        1 MOL     -0.103852
    114 C38         3.3000   -1.8170   -2.2050 c         1 MOL      0.591308
    115 N11         3.0300   -2.5820   -3.2240 n         1 MOL     -0.608292
    116 O18         4.3310   -1.1530   -2.1660 o         1 MOL     -0.552344
    117 H50         1.0200   -1.4740    1.1400 hn        1 MOL      0.093364
    118 H51         2.6490   -3.5030   -0.2920 h1        1 MOL      0.027998
    119 H52         2.1590   -0.6060   -0.8230 hc        1 MOL      0.084821
    120 H53         1.3290   -1.9750   -1.5380 hc        1 MOL      0.084821
    121 H54         2.2230   -3.1860   -3.1030 hn        1 MOL      0.298300
    122 H55         3.7970   -2.8130   -3.8380 hn        1 MOL      0.298300
    123 N12         5.0750   -2.5930    0.1650 n         1 MOL     -0.068952
    124 C39         6.4950   -2.3100    0.6530 c3        1 MOL     -0.020913
    125 C40         6.7340   -0.7860    0.7260 c         1 MOL      0.293865
    126 O19         7.4730   -0.3140    1.6170 o         1 MOL     -0.528645
    127 C41         7.6610   -2.9380   -0.1690 c3        1 MOL     -0.088353
    128 C42         7.5010   -2.9610   -1.6700 ca        1 MOL      0.095180
    129 C43         6.5890   -3.7710   -2.2580 ca        1 MOL     -0.219125
    130 C44         8.1470   -1.9440   -2.2830 ca        1 MOL     -0.219125
    131 C45         6.4550   -3.6850   -3.6590 ca        1 MOL     -0.224683
    132 C46         8.0400   -1.8650   -3.6760 ca        1 MOL     -0.224683
    133 C47         7.2000   -2.7570   -4.4160 ca        1 MOL      0.313292
    134 O20         7.1870   -2.8360   -5.7740 oh        1 MOL     -0.430817
    135 H56         4.9960   -3.0730   -0.7210 hn        1 MOL      0.033257
    136 H57         6.6310   -2.6900    1.6650 h1        1 MOL      0.102357
    137 H58         7.8790   -3.9310    0.2340 hc        1 MOL      0.058145
    138 H59         8.4970   -2.2880    0.0950 hc        1 MOL      0.058145
    139 H60         6.0830   -4.5330   -1.6950 ha        1 MOL      0.167526
    140 H61         8.7840   -1.2540   -1.7400 ha        1 MOL      0.167526
    141 H62         5.8350   -4.4170   -4.1660 ha        1 MOL      0.137231
    142 H63         8.5760   -1.0750   -4.1700 ha        1 MOL      0.137231
    143 H64         6.6210   -3.5640   -6.0380 ho        1 MOL      0.306751
    144 N13         6.0200    0.0480   -0.0700 n         1 MOL      0.031818
    145 C48         6.1590    1.5720    0.0300 c3        1 MOL     -0.363844
    146 C49         5.4120    2.1630    1.2870 c         1 MOL      0.616019
    147 O21         5.5400    3.3600    1.6220 o         1 MOL     -0.563692
    148 C50         5.7350    2.2210   -1.3060 c3        1 MOL      0.361638
    149 C51         6.5830    1.6420   -2.4590 c3        1 MOL     -0.355136
    150 C52         8.1130    2.1730   -2.4610 c         1 MOL      0.849017
    151 O22         8.8810    2.0870   -1.4540 o         1 MOL     -0.754726
    152 O23         8.5910    2.5680   -3.5240 o         1 MOL     -0.754726
    153 H65         5.6180   -0.3860   -0.8880 hn        1 MOL      0.124568
    154 H66         7.2120    1.7540    0.2240 h1        1 MOL      0.180504
    155 H67         5.9420    3.2990   -1.3400 hc        1 MOL     -0.088195
    156 H68         4.6690    2.0190   -1.3980 hc        1 MOL     -0.088195
    157 H69         6.1630    1.8400   -3.4390 hc        1 MOL      0.073983
    158 H70         6.6040    0.5580   -2.4710 hc        1 MOL      0.073983
    159 N14         4.5680    1.3400    1.8820 n         1 MOL     -0.338977
    160 C53         3.5670    1.6910    2.9750 c3        1 MOL      0.056267
    161 C54         3.9560    1.1110    4.3580 c         1 MOL      0.372777
    162 O24         3.9930    1.8300    5.4010 o         1 MOL     -0.566258
    163 C55         2.1530    1.1650    2.6140 c3        1 MOL     -0.382236
    164 C56         1.6930    1.9050    1.3450 c3        1 MOL     -0.013570
    165 C57         0.3980    1.2580    0.8230 c         1 MOL      0.733035
    166 O25        -0.3870    1.8640    0.0700 o         1 MOL     -0.668564
    167 O26         0.0900    0.1110    1.0770 o         1 MOL     -0.668564
    168 H71         4.5110    0.3900    1.5680 hn        1 MOL      0.103727
    169 H72         3.5610    2.7530    3.1920 h1        1 MOL      0.074537
    170 H73         1.5150    1.1180    3.4940 hc        1 MOL      0.186074
    171 H74         2.2920    0.1340    2.2910 hc        1 MOL      0.186074
    172 H75         2.4820    1.9010    0.5990 hc        1 MOL      0.056724
    173 H76         1.5590    2.9610    1.5750 hc        1 MOL      0.056724
    174 N15         4.4400   -0.1280    4.4190 n         1 MOL     -0.040521
    175 C58         4.8530   -0.7970    5.6270 c3        1 MOL     -0.124911
    176 H77         5.8700   -1.1690    5.5060 h1        1 MOL      0.057535
    177 H78         4.8190   -0.0960    6.4610 h1        1 MOL      0.057535
    178 H79         4.1830   -1.6340    5.8270 h1        1 MOL      0.057535
    179 H80         4.4420   -0.5980    3.5230 hn        1 MOL      0.128094
    180 Ca1        -2.4260    0.1140    0.2060 Ca        1 MOL      1.692165
    181 O27        -2.1940    0.7850    2.8510 oh        1 MOL     -0.861522
    182 O28        -1.1570   -1.4720   -1.5930 oh        1 MOL     -0.861522
    183 H81        -1.7890    1.3600    3.5060 ho        1 MOL      0.401464
    184 H82        -1.9280   -1.9190   -1.9470 ho        1 MOL      0.401464
    185 H83        -2.7020    0.1610    3.3640 ho        1 MOL      0.401464
    186 H84        -0.9870   -0.7710   -2.2270 ho        1 MOL      0.401464
    187 O29        -4.7480   -0.2450    1.6380 oh        1 MOL     -0.861522
    188 H85        -4.7540   -0.7000    2.4820 ho        1 MOL      0.401464
    189 H86        -5.4070    0.4450    1.7400 ho        1 MOL      0.401464
@<TRIPOS>BOND
     1    1    2 1   
     2    1    4 1   
     3    1    5 1   
     4    1    6 1   
     5    2    3 2   
     6    2    7 1   
     7    7    8 1   
     8    7   15 1   
     9    8    9 1   
    10    8   11 1   
    11    8   16 1   
    12    9   10 2   
    13    9   19 1   
    14   11   12 1   
    15   11   17 1   
    16   11   18 1   
    17   12   13 1   
    18   12   14 1   
    19   19   20 1   
    20   19   27 1   
    21   20   21 1   
    22   20   23 1   
    23   20   28 1   
    24   21   22 2   
    25   21   38 1   
    26   23   24 1   
    27   23   25 1   
    28   23   29 1   
    29   24   26 1   
    30   24   30 1   
    31   24   31 1   
    32   25   32 1   
    33   25   33 1   
    34   25   34 1   
    35   26   35 1   
    36   26   36 1   
    37   26   37 1   
    38   38   39 1   
    39   38   46 1   
    40   39   40 1   
    41   39   42 1   
    42   39   47 1   
    43   40   41 2   
    44   40   50 1   
    45   42   43 1   
    46   42   48 1   
    47   42   49 1   
    48   43   44 1   
    49   43   45 1   
    50   50   51 1   
    51   50   54 1   
    52   51   52 1   
    53   51   55 1   
    54   51   56 1   
    55   52   53 2   
    56   52   57 1   
    57   57   58 1   
    58   57   65 1   
    59   58   59 1   
    60   58   61 1   
    61   58   66 1   
    62   59   60 2   
    63   59   69 1   
    64   61   62 1   
    65   61   67 1   
    66   61   68 1   
    67   62   63 1   
    68   62   64 1   
    69   69   70 1   
    70   69   73 1   
    71   70   71 1   
    72   70   74 1   
    73   70   75 1   
    74   71   72 2   
    75   71   76 1   
    76   76   77 1   
    77   76   85 1   
    78   77   78 1   
    79   77   80 1   
    80   77   86 1   
    81   78   79 2   
    82   78   93 1   
    83   80   81 1   
    84   80   87 1   
    85   80   88 1   
    86   81   82 1   
    87   81   89 1   
    88   81   90 1   
    89   82   83 1   
    90   82   84 2   
    91   83   91 1   
    92   83   92 1   
    93   93   94 1   
    94   93  100 1   
    95   94   95 1   
    96   94   97 1   
    97   94  101 1   
    98   95   96 2   
    99   95  109 1   
   100   97   98 1   
   101   97   99 1   
   102   97  102 1   
   103   98  103 1   
   104   98  104 1   
   105   98  105 1   
   106   99  106 1   
   107   99  107 1   
   108   99  108 1   
   109  109  110 1   
   110  109  117 1   
   111  110  111 1   
   112  110  113 1   
   113  110  118 1   
   114  111  112 2   
   115  111  123 1   
   116  113  114 1   
   117  113  119 1   
   118  113  120 1   
   119  114  115 1   
   120  114  116 2   
   121  115  121 1   
   122  115  122 1   
   123  123  124 1   
   124  123  135 1   
   125  124  125 1   
   126  124  127 1   
   127  124  136 1   
   128  125  126 2   
   129  125  144 1   
   130  127  128 1   
   131  127  137 1   
   132  127  138 1   
   133  128  129 ar  
   134  128  130 ar  
   135  129  131 ar  
   136  129  139 1   
   137  130  132 ar  
   138  130  140 1   
   139  131  133 ar  
   140  131  141 1   
   141  132  133 ar  
   142  132  142 1   
   143  133  134 1   
   144  134  143 1   
   145  144  145 1   
   146  144  153 1   
   147  145  146 1   
   148  145  148 1   
   149  145  154 1   
   150  146  147 2   
   151  146  159 1   
   152  148  149 1   
   153  148  155 1   
   154  148  156 1   
   155  149  150 1   
   156  149  157 1   
   157  149  158 1   
   158  150  151 1   
   159  150  152 1   
   160  159  160 1   
   161  159  168 1   
   162  160  161 1   
   163  160  163 1   
   164  160  169 1   
   165  161  162 2   
   166  161  174 1   
   167  163  164 1   
   168  163  170 1   
   169  163  171 1   
   170  164  165 1   
   171  164  172 1   
   172  164  173 1   
   173  165  166 1   
   174  165  167 1   
   175  174  175 1   
   176  174  179 1   
   177  175  176 1   
   178  175  177 1   
   179  175  178 1   
   180  181  183 1   
   181  181  185 1   
   182  182  184 1   
   183  182  186 1   
   184  187  188 1   
   185  187  189 1   
@<TRIPOS>SUBSTRUCTURE
     1 MOL         1 TEMP              0 ****  ****    0 ROOT
