@<TRIPOS>MOLECULE
MOL
  175   173     1     0     0
SMALL
resp


@<TRIPOS>ATOM
      1 C1          0.6290    4.5060    5.4540 c3        1 MOL     -0.397666
      2 C2          0.1290    4.1510    4.0290 c         1 MOL      0.716635
      3 O1          0.9180    4.2430    3.1190 o         1 MOL     -0.541557
      4 H1         -0.1340    4.2340    6.1840 hc        1 MOL      0.096394
      5 H2          1.5450    3.9550    5.6660 hc        1 MOL      0.096394
      6 H3          0.8250    5.5750    5.5150 hc        1 MOL      0.096394
      7 N1         -1.1390    3.8500    3.8010 n         1 MOL     -0.614100
      8 C3         -1.7780    3.5490    2.5440 c3        1 MOL      0.093611
      9 C4         -1.8170    4.7630    1.5720 c         1 MOL      0.704829
     10 O2         -1.9330    5.8930    2.0390 o         1 MOL     -0.594423
     11 C5         -3.1890    3.0300    2.8320 c3        1 MOL     -0.443426
     12 C6         -3.8930    2.4770    1.6460 c         1 MOL      0.719168
     13 O3         -3.2410    2.1230    0.6000 o         1 MOL     -0.637133
     14 O4         -5.1350    2.2430    1.8850 o         1 MOL     -0.637133
     15 H4         -1.7410    3.9260    4.6110 hn        1 MOL      0.323712
     16 H5         -1.0900    2.9060    1.9980 h1        1 MOL      0.114338
     17 H6         -3.8960    3.7760    3.1870 hc        1 MOL      0.110948
     18 H7         -3.1640    2.2180    3.5700 hc        1 MOL      0.110948
     19 N2         -1.6890    4.4780    0.2760 n         1 MOL     -0.709134
     20 C7         -1.6520    5.4190   -0.8260 c3        1 MOL      0.382201
     21 C8         -2.6510    5.0860   -1.9690 c         1 MOL      0.477853
     22 O5         -2.6940    5.7720   -2.9800 o         1 MOL     -0.574115
     23 C9         -0.2140    5.6040   -1.2930 c3        1 MOL     -0.255763
     24 H8         -1.6930    3.5170   -0.0370 hn        1 MOL      0.509676
     25 H9         -2.0560    6.3920   -0.5430 h1        1 MOL     -0.022892
     26 H10        -0.2280    6.1360   -2.2360 hc        1 MOL      0.054447
     27 H11         0.3480    6.1130   -0.5090 hc        1 MOL      0.054447
     28 H12         0.1250    4.5950   -1.5390 hc        1 MOL      0.054447
     29 N3         -3.3670    3.9850   -1.7990 n         1 MOL     -0.352541
     30 C10        -4.3340    3.5900   -2.8410 c3        1 MOL      0.027198
     31 C11        -5.6310    2.7740   -2.4370 c         1 MOL      0.445279
     32 O6         -6.5230    2.6940   -3.2700 o         1 MOL     -0.547209
     33 C12        -3.5630    2.6380   -3.8920 c3        1 MOL     -0.008046
     34 C13        -2.9860    1.3580   -3.3180 c         1 MOL      0.626123
     35 O7         -3.3970    0.8710   -2.2440 o         1 MOL     -0.675026
     36 O8         -1.9690    0.8380   -3.8550 o         1 MOL     -0.675026
     37 H13        -3.1320    3.4240   -0.9940 hn        1 MOL      0.080770
     38 H14        -4.7040    4.4360   -3.4180 h1        1 MOL      0.080074
     39 H15        -2.7140    3.0960   -4.4150 hc        1 MOL      0.007832
     40 H16        -4.2240    2.4400   -4.7370 hc        1 MOL      0.007832
     41 N4         -5.7380    2.2700   -1.2090 n         1 MOL     -0.250953
     42 C14        -6.9810    1.7170   -0.7950 c3        1 MOL     -0.181392
     43 C15        -7.1990    0.1810   -1.1120 c         1 MOL      0.423942
     44 O9         -8.3580   -0.2340   -1.1240 o         1 MOL     -0.585145
     45 H17        -4.8550    2.1160   -0.7510 hn        1 MOL      0.164133
     46 H18        -7.8010    2.2740   -1.2480 h1        1 MOL      0.114318
     47 H19        -7.1080    1.8670    0.2820 h1        1 MOL      0.114318
     48 N5         -6.1670   -0.5180   -1.5870 n         1 MOL     -0.047992
     49 C16        -6.3160   -1.8780   -2.0010 c3        1 MOL     -0.142432
     50 C17        -6.4320   -2.9240   -0.8650 c         1 MOL      0.446754
     51 O10        -6.5740   -4.0760   -1.2540 o         1 MOL     -0.521260
     52 C18        -5.2520   -2.2050   -3.0310 c3        1 MOL      0.016215
     53 C19        -3.7950   -2.3650   -2.5780 c         1 MOL      0.397493
     54 N6         -2.7870   -2.3650   -3.4350 n         1 MOL     -0.624922
     55 O11        -3.5510   -2.1980   -1.3930 o         1 MOL     -0.260797
     56 H20        -5.2570   -0.0960   -1.5600 hn        1 MOL      0.125731
     57 H21        -7.2630   -1.9520   -2.5410 h1        1 MOL      0.120585
     58 H22        -5.2390   -1.3510   -3.7050 hc        1 MOL      0.013036
     59 H23        -5.5300   -3.0590   -3.6560 hc        1 MOL      0.013036
     60 H24        -3.0750   -2.2690   -4.3980 hn        1 MOL      0.335547
     61 H25        -1.8370   -2.2200   -3.1450 hn        1 MOL      0.335547
     62 N7         -6.3530   -2.5910    0.4040 n         1 MOL     -0.204076
     63 C20        -6.4960   -3.5130    1.5310 c3        1 MOL     -0.272640
     64 C21        -5.1580   -4.2840    1.7580 c         1 MOL      0.553815
     65 O12        -5.1140   -5.2890    2.4740 o         1 MOL     -0.576375
     66 H26        -6.1550   -1.6270    0.6140 hn        1 MOL      0.200375
     67 H27        -7.3690   -4.1310    1.2870 h1        1 MOL      0.128635
     68 H28        -6.7190   -2.9290    2.4230 h1        1 MOL      0.128635
     69 N8         -4.0700   -3.8180    1.0780 n         1 MOL     -0.169629
     70 C22        -2.7510   -4.3630    1.3810 c3        1 MOL     -0.073514
     71 C23        -1.7550   -3.3210    1.5860 c         1 MOL      0.494388
     72 O13        -1.6150   -2.3720    0.8630 o         1 MOL     -0.488861
     73 C24        -2.3030   -5.4400    0.3910 c3        1 MOL      0.504652
     74 C25        -2.8380   -6.8460    0.4560 c3        1 MOL     -0.467052
     75 O14        -2.4620   -4.9590   -1.0200 oh        1 MOL     -0.621104
     76 H29        -4.2060   -3.0930    0.4010 hn        1 MOL      0.034464
     77 H30        -2.7670   -4.7860    2.3860 h1        1 MOL      0.054772
     78 H31        -1.2330   -5.5040    0.5640 h1        1 MOL     -0.028525
     79 H32        -2.2440   -4.0250   -1.0720 ho        1 MOL      0.325290
     80 H33        -2.7030   -7.3470   -0.4980 hc        1 MOL      0.119418
     81 H34        -2.3760   -7.4240    1.2550 hc        1 MOL      0.119418
     82 H35        -3.8980   -6.7570    0.6800 hc        1 MOL      0.119418
     83 N9         -0.8130   -3.5010    2.5890 n         1 MOL     -0.579177
     84 C26         0.4460   -2.6450    2.5040 c3        1 MOL      0.058324
     85 C27         1.3070   -3.0880    1.2590 c         1 MOL      0.645578
     86 O15         1.5350   -4.2830    1.1230 o         1 MOL     -0.607007
     87 C28         1.1990   -2.5380    3.7830 c3        1 MOL      0.025614
     88 C29         0.3730   -1.6390    4.7240 c3        1 MOL      0.285797
     89 C30         2.6590   -1.9500    3.6990 c3        1 MOL     -0.188714
     90 C31         0.9130   -1.4030    6.1400 c3        1 MOL     -0.316388
     91 H36        -0.7480   -4.3390    3.1490 hn        1 MOL      0.320244
     92 H37         0.1320   -1.6100    2.3340 h1        1 MOL     -0.092822
     93 H38         1.2960   -3.5830    4.0730 hc        1 MOL      0.001782
     94 H39        -0.5610   -2.1510    4.9580 hc        1 MOL     -0.054396
     95 H40         0.0950   -0.7300    4.1880 hc        1 MOL     -0.054396
     96 H41         3.3330   -2.4910    3.0320 hc        1 MOL      0.043788
     97 H42         2.5150   -0.9030    3.4260 hc        1 MOL      0.043788
     98 H43         3.1100   -2.0480    4.6840 hc        1 MOL      0.043788
     99 H44         1.7510   -0.7120    6.0760 hc        1 MOL      0.063577
    100 H45         0.0810   -1.0110    6.7310 hc        1 MOL      0.063577
    101 H46         1.1990   -2.4040    6.4780 hc        1 MOL      0.063577
    102 N10         1.7230   -2.1250    0.4340 n         1 MOL     -0.463950
    103 C32         2.5860   -2.2800   -0.7510 c3        1 MOL      0.276231
    104 C33         4.0210   -1.7980   -0.5570 c         1 MOL      0.192181
    105 O16         4.2900   -1.1680    0.3960 o         1 MOL     -0.276011
    106 C34         1.9950   -1.6050   -2.0100 c3        1 MOL     -0.305325
    107 C35         0.5660   -1.7630   -2.4470 c         1 MOL      0.735252
    108 O17        -0.3330   -1.3860   -1.6600 o         1 MOL     -0.671359
    109 O18         0.3080   -2.3310   -3.5430 o         1 MOL     -0.671359
    110 H47         1.3470   -1.2210    0.6730 hn        1 MOL      0.369167
    111 H48         2.6320   -3.3510   -0.9500 h1        1 MOL      0.035435
    112 H49         2.7450   -1.9930   -2.6980 hc        1 MOL      0.041168
    113 H50         2.3410   -0.5800   -2.0650 hc        1 MOL      0.041168
    114 N11         4.9160   -2.0820   -1.4580 n         1 MOL     -0.439998
    115 C36         6.3390   -1.7250   -1.2220 c3        1 MOL      0.286037
    116 C37         6.5880   -0.2350   -0.9460 c         1 MOL      0.335358
    117 O19         7.1870    0.0750    0.0820 o         1 MOL     -0.499263
    118 C38         7.2580   -2.2760   -2.3510 c3        1 MOL     -0.245905
    119 C39         8.7840   -1.8990   -2.3340 ca        1 MOL      0.109636
    120 C40         9.4190   -2.2960   -1.1300 ca        1 MOL     -0.130609
    121 C41         9.5120   -1.3550   -3.4230 ca        1 MOL     -0.130609
    122 C42        10.8150   -2.0100   -0.9770 ca        1 MOL     -0.152701
    123 C43        10.8620   -1.1520   -3.2210 ca        1 MOL     -0.152701
    124 C44        11.4890   -1.3280   -1.9790 ca        1 MOL     -0.079494
    125 H51         4.6330   -2.6990   -2.1970 hn        1 MOL      0.304654
    126 H52         6.5550   -2.3050   -0.3270 h1        1 MOL      0.080644
    127 H53         6.8520   -1.9510   -3.3050 hc        1 MOL      0.056661
    128 H54         7.2290   -3.3530   -2.2040 hc        1 MOL      0.056661
    129 H55         8.8410   -2.6730   -0.2880 ha        1 MOL      0.116523
    130 H56         9.0660   -0.9970   -4.3360 ha        1 MOL      0.116523
    131 H57        11.2780   -2.1360   -0.0110 ha        1 MOL      0.115385
    132 H58        11.3620   -0.6800   -4.0460 ha        1 MOL      0.115385
    133 H59        12.4710   -0.9290   -1.7960 ha        1 MOL      0.100537
    134 N12         6.0570    0.7280   -1.7440 n         1 MOL     -0.095390
    135 C45         6.3170    2.1840   -1.3950 c3        1 MOL     -0.013109
    136 C46         5.6980    2.4970   -0.0640 c         1 MOL      0.431907
    137 O20         6.0550    3.4560    0.5270 o         1 MOL     -0.550648
    138 C47         5.7300    2.9680   -2.6040 c3        1 MOL     -0.231322
    139 C48         4.6310    1.9600   -3.0590 c3        1 MOL     -0.001295
    140 C49         5.3140    0.6320   -2.9460 c3        1 MOL     -0.009839
    141 H60         7.3840    2.3350   -1.2810 h1        1 MOL      0.075911
    142 H61         5.3390    3.9360   -2.2820 hc        1 MOL      0.096460
    143 H62         6.4290    3.0830   -3.4300 hc        1 MOL      0.096460
    144 H63         3.6880    1.9620   -2.5050 hc        1 MOL      0.043981
    145 H64         4.4430    2.1830   -4.1130 hc        1 MOL      0.043981
    146 H65         4.5540   -0.1440   -2.8220 h1        1 MOL      0.028405
    147 H66         5.9820    0.4870   -3.7850 h1        1 MOL      0.028405
    148 N13         4.7260    1.7560    0.3660 n         1 MOL     -0.075861
    149 C50         3.9840    1.9320    1.6400 c3        1 MOL     -0.236002
    150 C51         4.6450    1.2360    2.8530 c         1 MOL      0.494356
    151 O21         4.5140    1.6530    3.9970 o         1 MOL     -0.550284
    152 C52         2.5330    1.5510    1.4590 c3        1 MOL      0.037748
    153 C53         1.7130    2.1950    0.3800 c3        1 MOL      0.039598
    154 C54         0.3860    1.5010    0.2470 c         1 MOL      0.501079
    155 O22         0.1180    0.4750    0.8760 o         1 MOL     -0.665881
    156 O23        -0.4740    1.8200   -0.5790 o         1 MOL     -0.665881
    157 H67         4.4860    0.9840   -0.2320 hn        1 MOL      0.161319
    158 H68         4.0530    3.0110    1.7970 h1        1 MOL      0.132774
    159 H69         2.1160    1.8390    2.4310 hc        1 MOL      0.024812
    160 H70         2.4360    0.4750    1.3700 hc        1 MOL      0.024812
    161 H71         2.2030    2.1890   -0.5950 hc        1 MOL      0.007259
    162 H72         1.5460    3.2530    0.6110 hc        1 MOL      0.007259
    163 N14         5.3810    0.1130    2.6050 n         1 MOL     -0.014593
    164 C55         6.3400   -0.4240    3.5340 c3        1 MOL     -0.183169
    165 H73         5.8290   -0.7300    4.4470 h1        1 MOL      0.062335
    166 H74         6.8350   -1.2870    3.0880 h1        1 MOL      0.062335
    167 H75         7.0820    0.3390    3.7730 h1        1 MOL      0.062335
    168 H76         5.4330   -0.3050    1.6920 hn        1 MOL      0.019899
    169 Ca1        -2.1270   -0.1080   -0.2480 Ca        1 MOL      1.610706
    170 O24        -4.6660   -0.2310    0.9650 oh        1 MOL     -0.784226
    171 H77        -4.5940    0.7080    1.1530 ho        1 MOL      0.385529
    172 H78        -5.1540   -0.5800    1.7150 ho        1 MOL      0.385529
    173 O25        -2.1130   -0.1600    2.5210 oh        1 MOL     -0.784226
    174 H79        -2.4990    0.1630    3.3330 ho        1 MOL      0.385529
    175 H80        -1.1740   -0.0640    2.6460 ho        1 MOL      0.385529
@<TRIPOS>BOND
     1    1    2 1   
     2    1    4 1   
     3    1    5 1   
     4    1    6 1   
     5    2    3 2   
     6    2    7 1   
     7    7    8 1   
     8    7   15 1   
     9    8    9 1   
    10    8   11 1   
    11    8   16 1   
    12    9   10 2   
    13    9   19 1   
    14   11   12 1   
    15   11   17 1   
    16   11   18 1   
    17   12   13 1   
    18   12   14 1   
    19   19   20 1   
    20   19   24 1   
    21   20   21 1   
    22   20   23 1   
    23   20   25 1   
    24   21   22 2   
    25   21   29 1   
    26   23   26 1   
    27   23   27 1   
    28   23   28 1   
    29   29   30 1   
    30   29   37 1   
    31   30   31 1   
    32   30   33 1   
    33   30   38 1   
    34   31   32 2   
    35   31   41 1   
    36   33   34 1   
    37   33   39 1   
    38   33   40 1   
    39   34   35 1   
    40   34   36 1   
    41   41   42 1   
    42   41   45 1   
    43   42   43 1   
    44   42   46 1   
    45   42   47 1   
    46   43   44 2   
    47   43   48 1   
    48   48   49 1   
    49   48   56 1   
    50   49   50 1   
    51   49   52 1   
    52   49   57 1   
    53   50   51 2   
    54   50   62 1   
    55   52   53 1   
    56   52   58 1   
    57   52   59 1   
    58   53   54 1   
    59   53   55 2   
    60   54   60 1   
    61   54   61 1   
    62   62   63 1   
    63   62   66 1   
    64   63   64 1   
    65   63   67 1   
    66   63   68 1   
    67   64   65 2   
    68   64   69 1   
    69   69   70 1   
    70   69   76 1   
    71   70   71 1   
    72   70   73 1   
    73   70   77 1   
    74   71   72 2   
    75   71   83 1   
    76   73   74 1   
    77   73   75 1   
    78   73   78 1   
    79   74   80 1   
    80   74   81 1   
    81   74   82 1   
    82   75   79 1   
    83   83   84 1   
    84   83   91 1   
    85   84   85 1   
    86   84   87 1   
    87   84   92 1   
    88   85   86 2   
    89   85  102 1   
    90   87   88 1   
    91   87   89 1   
    92   87   93 1   
    93   88   90 1   
    94   88   94 1   
    95   88   95 1   
    96   89   96 1   
    97   89   97 1   
    98   89   98 1   
    99   90   99 1   
   100   90  100 1   
   101   90  101 1   
   102  102  103 1   
   103  102  110 1   
   104  103  104 1   
   105  103  106 1   
   106  103  111 1   
   107  104  105 2   
   108  104  114 1   
   109  106  107 1   
   110  106  112 1   
   111  106  113 1   
   112  107  108 1   
   113  107  109 1   
   114  114  115 1   
   115  114  125 1   
   116  115  116 1   
   117  115  118 1   
   118  115  126 1   
   119  116  117 2   
   120  116  134 1   
   121  118  119 1   
   122  118  127 1   
   123  118  128 1   
   124  119  120 ar  
   125  119  121 ar  
   126  120  122 ar  
   127  120  129 1   
   128  121  123 ar  
   129  121  130 1   
   130  122  124 ar  
   131  122  131 1   
   132  123  124 ar  
   133  123  132 1   
   134  124  133 1   
   135  134  135 1   
   136  134  140 1   
   137  135  136 1   
   138  135  138 1   
   139  135  141 1   
   140  136  137 2   
   141  136  148 1   
   142  138  139 1   
   143  138  142 1   
   144  138  143 1   
   145  139  140 1   
   146  139  144 1   
   147  139  145 1   
   148  140  146 1   
   149  140  147 1   
   150  148  149 1   
   151  148  157 1   
   152  149  150 1   
   153  149  152 1   
   154  149  158 1   
   155  150  151 2   
   156  150  163 1   
   157  152  153 1   
   158  152  159 1   
   159  152  160 1   
   160  153  154 1   
   161  153  161 1   
   162  153  162 1   
   163  154  155 1   
   164  154  156 1   
   165  163  164 1   
   166  163  168 1   
   167  164  165 1   
   168  164  166 1   
   169  164  167 1   
   170  170  171 1   
   171  170  172 1   
   172  173  174 1   
   173  173  175 1   
@<TRIPOS>SUBSTRUCTURE
     1 MOL         1 TEMP              0 ****  ****    0 ROOT
