@<TRIPOS>MOLECULE
MOL
  175   173     1     0     0
SMALL
resp


@<TRIPOS>ATOM
      1 C1          0.7840    3.6930    5.5810 c3        1 MOL     -0.451974
      2 C2          0.0600    3.6740    4.2250 c         1 MOL      0.699953
      3 O1          0.7130    4.0980    3.3260 o         1 MOL     -0.493543
      4 H1          1.5170    2.8870    5.6120 hc        1 MOL      0.106746
      5 H2          1.2900    4.6490    5.7110 hc        1 MOL      0.106746
      6 H3          0.0590    3.5540    6.3830 hc        1 MOL      0.106746
      7 N1         -1.2140    3.1730    4.1280 n         1 MOL     -0.627528
      8 C3         -1.9410    3.0480    2.8620 c3        1 MOL      0.070072
      9 C4         -2.0550    4.3710    2.1120 c         1 MOL      0.695112
     10 O2         -2.2110    5.4280    2.7300 o         1 MOL     -0.588944
     11 C5         -3.3660    2.5230    3.1380 c3        1 MOL     -0.431348
     12 C6         -4.1020    2.2240    1.8030 c         1 MOL      0.748424
     13 O3         -3.5020    1.9200    0.7810 o         1 MOL     -0.657122
     14 O4         -5.3120    2.1130    1.9290 o         1 MOL     -0.657122
     15 H4         -1.6700    2.9240    4.9860 hn        1 MOL      0.334428
     16 H5         -1.3920    2.2970    2.2960 h1        1 MOL      0.040840
     17 H6         -3.9410    3.2550    3.7110 hc        1 MOL      0.102382
     18 H7         -3.3750    1.6170    3.7410 hc        1 MOL      0.102382
     19 N2         -1.9460    4.3230    0.7800 n         1 MOL     -0.552242
     20 C7         -2.0760    5.4600   -0.1000 c3        1 MOL      0.009059
     21 C8         -2.9090    5.2430   -1.3570 c         1 MOL      0.540417
     22 O5         -3.0510    6.1520   -2.2100 o         1 MOL     -0.581604
     23 C9         -0.6950    5.7700   -0.6200 c3        1 MOL      0.008193
     24 H8         -1.6170    3.4700    0.3680 hn        1 MOL      0.361471
     25 H9         -2.3210    6.4000    0.3900 h1        1 MOL      0.085638
     26 H10        -0.7270    6.6550   -1.2590 hc        1 MOL      0.001251
     27 H11        -0.0530    5.9540    0.2390 hc        1 MOL      0.001251
     28 H12        -0.2230    4.9690   -1.1850 hc        1 MOL      0.001251
     29 N3         -3.6230    4.1350   -1.5000 n         1 MOL     -0.430513
     30 C10        -4.4930    3.7580   -2.5870 c3        1 MOL      0.123304
     31 C11        -5.8240    3.0290   -2.1760 c         1 MOL      0.427510
     32 O6         -6.7590    2.9150   -2.9190 o         1 MOL     -0.547640
     33 C12        -3.7400    2.9440   -3.6520 c3        1 MOL     -0.209235
     34 C13        -2.9960    1.7180   -3.0340 c         1 MOL      0.764911
     35 O7         -3.4750    1.0940   -2.1090 o         1 MOL     -0.707990
     36 O8         -1.8280    1.5370   -3.4280 o         1 MOL     -0.707990
     37 H13        -3.4030    3.3990   -0.8410 hn        1 MOL      0.292313
     38 H14        -4.9340    4.6790   -2.9630 h1        1 MOL      0.054727
     39 H15        -3.0040    3.6050   -4.1090 hc        1 MOL      0.037929
     40 H16        -4.4400    2.5620   -4.3930 hc        1 MOL      0.037929
     41 N4         -5.9310    2.5810   -0.9260 n         1 MOL     -0.200361
     42 C14        -7.1380    1.9060   -0.4680 c3        1 MOL     -0.224708
     43 C15        -7.3420    0.4310   -0.8900 c         1 MOL      0.526064
     44 O9         -8.4980    0.0400   -0.8230 o         1 MOL     -0.598047
     45 H17        -5.1450    2.5910   -0.2920 hn        1 MOL      0.102761
     46 H18        -7.9680    2.4980   -0.8540 h1        1 MOL      0.123042
     47 H19        -7.1610    1.9610    0.6240 h1        1 MOL      0.123042
     48 N5         -6.3040   -0.3050   -1.4230 n         1 MOL     -0.161599
     49 C16        -6.4750   -1.6950   -1.9380 c3        1 MOL     -0.138710
     50 C17        -6.4100   -2.7400   -0.8530 c         1 MOL      0.450941
     51 O10        -6.2320   -3.9350   -1.1500 o         1 MOL     -0.510575
     52 C18        -5.4330   -1.9110   -3.0430 c3        1 MOL     -0.131054
     53 C19        -4.0100   -2.0690   -2.5400 c         1 MOL      0.392574
     54 N6         -3.0360   -2.2140   -3.4280 n         1 MOL     -0.623801
     55 O11        -3.7130   -1.9700   -1.3760 o         1 MOL     -0.213181
     56 H20        -5.3830    0.1060   -1.3380 hn        1 MOL      0.129433
     57 H21        -7.4170   -1.7280   -2.4750 h1        1 MOL      0.145749
     58 H22        -5.3760   -0.9950   -3.6290 hc        1 MOL      0.066168
     59 H23        -5.6930   -2.7580   -3.6700 hc        1 MOL      0.066168
     60 H24        -3.1310   -2.3630   -4.4200 hn        1 MOL      0.338814
     61 H25        -2.1090   -2.2760   -3.0590 hn        1 MOL      0.338814
     62 N7         -6.4930   -2.4090    0.4290 n         1 MOL     -0.317341
     63 C20        -6.4670   -3.4120    1.5250 c3        1 MOL     -0.051781
     64 C21        -5.1870   -4.2600    1.6640 c         1 MOL      0.479876
     65 O12        -5.2940   -5.2300    2.4490 o         1 MOL     -0.586256
     66 H26        -6.6190   -1.4300    0.6620 hn        1 MOL      0.257357
     67 H27        -7.2710   -4.1460    1.5890 h1        1 MOL      0.066851
     68 H28        -6.4830   -2.8200    2.4410 h1        1 MOL      0.066851
     69 N8         -4.0530   -3.9560    1.0710 n         1 MOL      0.008037
     70 C22        -2.6920   -4.6080    1.1670 c3        1 MOL     -0.422374
     71 C23        -1.5770   -3.6030    1.2060 c         1 MOL      0.793928
     72 O13        -1.6550   -2.6040    0.4990 o         1 MOL     -0.487602
     73 C24        -2.3580   -5.6300    0.0370 c3        1 MOL      0.505468
     74 C25        -3.3880   -6.7510    0.0230 c3        1 MOL     -0.565091
     75 O14        -2.4810   -5.0720   -1.2730 oh        1 MOL     -0.545854
     76 H29        -3.9770   -3.0560    0.6230 hn        1 MOL     -0.011194
     77 H30        -2.5960   -5.1330    2.1130 h1        1 MOL      0.116268
     78 H31        -1.3350   -6.0000    0.1230 h1        1 MOL      0.009174
     79 H32        -2.5180   -4.1110   -1.1650 ho        1 MOL      0.264258
     80 H33        -4.2510   -6.3310   -0.4970 hc        1 MOL      0.144236
     81 H34        -2.9500   -7.5300   -0.6000 hc        1 MOL      0.144236
     82 H35        -3.6510   -7.1470    0.9980 hc        1 MOL      0.144236
     83 N9         -0.4340   -3.8760    1.8640 n         1 MOL     -0.800448
     84 C26         0.7640   -3.0320    1.6960 c3        1 MOL      0.007519
     85 C27         1.3750   -3.2740    0.3350 c         1 MOL      0.569606
     86 O15         1.5530   -4.4230   -0.0180 o         1 MOL     -0.582939
     87 C28         1.7970   -3.4160    2.8330 c3        1 MOL      0.136588
     88 C29         1.1240   -3.4170    4.2340 c3        1 MOL      0.001893
     89 C30         3.1100   -2.6160    2.6580 c3        1 MOL     -0.050618
     90 C31         2.0860   -3.6300    5.3950 c3        1 MOL     -0.076241
     91 H36        -0.3220   -4.7820    2.3050 hn        1 MOL      0.368487
     92 H37         0.5740   -1.9790    1.8610 h1        1 MOL      0.055230
     93 H38         2.1310   -4.4400    2.6390 hc        1 MOL     -0.004848
     94 H39         0.3960   -4.2150    4.3980 hc        1 MOL      0.010170
     95 H40         0.6650   -2.4680    4.5240 hc        1 MOL      0.010170
     96 H41         3.0030   -1.6060    3.0540 hc        1 MOL     -0.006597
     97 H42         3.9580   -3.0990    3.1500 hc        1 MOL     -0.006597
     98 H43         3.3880   -2.4830    1.6150 hc        1 MOL     -0.006597
     99 H44         2.6840   -2.7490    5.6090 hc        1 MOL      0.010036
    100 H45         1.5570   -3.7300    6.3510 hc        1 MOL      0.010036
    101 H46         2.7530   -4.4850    5.2860 hc        1 MOL      0.010036
    102 N10         1.6820   -2.1750   -0.3040 n         1 MOL     -0.150226
    103 C32         2.4880   -2.0000   -1.5230 c3        1 MOL     -0.068857
    104 C33         3.8830   -1.3490   -1.1620 c         1 MOL      0.351197
    105 O16         4.0370   -0.6840   -0.1120 o         1 MOL     -0.131237
    106 C34         1.6960   -1.2740   -2.5550 c3        1 MOL     -0.162394
    107 C35         0.2170   -1.7770   -2.7290 c         1 MOL      0.723201
    108 O17        -0.6060   -1.3050   -1.9020 o         1 MOL     -0.683382
    109 O18        -0.1810   -2.3260   -3.7600 o         1 MOL     -0.683382
    110 H47         1.2640   -1.3060   -0.0000 hn        1 MOL      0.072429
    111 H48         2.6270   -2.9930   -1.9560 h1        1 MOL      0.070000
    112 H49         2.2070   -1.2360   -3.5190 hc        1 MOL      0.055224
    113 H50         1.6560   -0.2170   -2.3040 hc        1 MOL      0.055224
    114 N11         4.9870   -1.5510   -1.8920 n         1 MOL     -0.543751
    115 C36         6.3820   -1.2330   -1.5240 c3        1 MOL      0.189335
    116 C37         6.8020    0.1840   -1.0900 c         1 MOL      0.445785
    117 O19         7.4070    0.3160    0.0220 o         1 MOL     -0.494600
    118 C38         7.3510   -1.8790   -2.5140 c3        1 MOL     -0.149736
    119 C39         8.7630   -1.7390   -2.0780 ca        1 MOL      0.126565
    120 C40         9.3050   -2.6960   -1.2430 ca        1 MOL     -0.219871
    121 C41         9.4690   -0.5780   -2.5000 ca        1 MOL     -0.219871
    122 C42        10.5920   -2.4140   -0.6980 ca        1 MOL     -0.043440
    123 C43        10.8080   -0.4370   -2.1580 ca        1 MOL     -0.043440
    124 C44        11.3720   -1.3330   -1.2630 ca        1 MOL     -0.195234
    125 H51         4.9660   -1.9340   -2.8310 hn        1 MOL      0.317056
    126 H52         6.5450   -1.8270   -0.6320 h1        1 MOL      0.081033
    127 H53         7.2670   -1.4770   -3.5190 hc        1 MOL      0.050060
    128 H54         7.1210   -2.9460   -2.5880 hc        1 MOL      0.050060
    129 H55         8.8330   -3.6140   -0.9330 ha        1 MOL      0.131242
    130 H56         9.0080    0.1420   -3.1690 ha        1 MOL      0.131242
    131 H57        10.9890   -2.9960    0.1220 ha        1 MOL      0.101750
    132 H58        11.3600    0.3990   -2.5700 ha        1 MOL      0.101750
    133 H59        12.3790   -1.1140   -0.9440 ha        1 MOL      0.116710
    134 N12         6.3590    1.2060   -1.8110 n         1 MOL     -0.144260
    135 C45         6.3290    2.5770   -1.2790 c3        1 MOL     -0.042193
    136 C46         5.6340    2.9090    0.0300 c         1 MOL      0.316751
    137 O20         5.9620    3.9200    0.6440 o         1 MOL     -0.515418
    138 C47         5.5730    3.2780   -2.4250 c3        1 MOL     -0.003345
    139 C48         4.9330    2.2730   -3.3790 c3        1 MOL     -0.157546
    140 C49         5.9560    1.1530   -3.1900 c3        1 MOL      0.025377
    141 H60         7.3560    2.9330   -1.1810 h1        1 MOL      0.087858
    142 H61         4.8210    3.9940   -2.0950 hc        1 MOL      0.033099
    143 H62         6.2880    3.8860   -2.9720 hc        1 MOL      0.033099
    144 H63         3.9260    2.0580   -3.0160 hc        1 MOL      0.083901
    145 H64         4.9470    2.5550   -4.4280 hc        1 MOL      0.083901
    146 H65         5.7270    0.1840   -3.6280 h1        1 MOL      0.020945
    147 H66         6.7460    1.5010   -3.8560 h1        1 MOL      0.020945
    148 N13         4.7700    2.0350    0.4620 n         1 MOL     -0.049202
    149 C50         4.0200    2.1050    1.7420 c3        1 MOL     -0.024333
    150 C51         4.7740    1.2500    2.7980 c         1 MOL      0.444912
    151 O21         4.8330    1.6480    3.9570 o         1 MOL     -0.561890
    152 C52         2.5420    1.5560    1.6940 c3        1 MOL     -0.029606
    153 C53         1.7910    2.2550    0.5190 c3        1 MOL     -0.072868
    154 C54         0.5440    1.4540    0.2980 c         1 MOL      0.629215
    155 O22        -0.4240    2.0760   -0.2670 o         1 MOL     -0.659937
    156 O23         0.4060    0.2320    0.5490 o         1 MOL     -0.659937
    157 H67         4.5820    1.2480   -0.1570 hn        1 MOL      0.072641
    158 H68         4.1320    3.1340    2.0730 h1        1 MOL      0.092639
    159 H69         2.1180    1.9440    2.6170 hc        1 MOL      0.017951
    160 H70         2.5810    0.4700    1.6080 hc        1 MOL      0.017951
    161 H71         2.2840    2.2310   -0.4530 hc        1 MOL      0.049231
    162 H72         1.5730    3.2670    0.8450 hc        1 MOL      0.049231
    163 N14         5.4950    0.1680    2.4020 n         1 MOL      0.001516
    164 C55         6.4330   -0.5550    3.2350 c3        1 MOL     -0.169731
    165 H73         6.7700   -1.4490    2.7100 h1        1 MOL      0.067395
    166 H74         7.2910    0.0820    3.4540 h1        1 MOL      0.067395
    167 H75         5.9450   -0.8420    4.1660 h1        1 MOL      0.067395
    168 H76         5.3240   -0.0410    1.4220 hn        1 MOL     -0.066749
    169 Ca1        -2.1530   -0.0650   -0.2360 Ca        1 MOL      1.579596
    170 O24        -4.0050   -0.8930    1.6910 oh        1 MOL     -0.729093
    171 H77        -4.7550   -0.3110    1.7680 ho        1 MOL      0.371480
    172 H78        -3.7110   -1.0500    2.5900 ho        1 MOL      0.371480
    173 O25        -1.3200   -0.0940    2.6390 oh        1 MOL     -0.729093
    174 H79        -0.3910    0.1030    2.4990 ho        1 MOL      0.371480
    175 H80        -1.4500    0.0080    3.5860 ho        1 MOL      0.371480
@<TRIPOS>BOND
     1    1    2 1   
     2    1    4 1   
     3    1    5 1   
     4    1    6 1   
     5    2    3 2   
     6    2    7 1   
     7    7    8 1   
     8    7   15 1   
     9    8    9 1   
    10    8   11 1   
    11    8   16 1   
    12    9   10 2   
    13    9   19 1   
    14   11   12 1   
    15   11   17 1   
    16   11   18 1   
    17   12   13 1   
    18   12   14 1   
    19   19   20 1   
    20   19   24 1   
    21   20   21 1   
    22   20   23 1   
    23   20   25 1   
    24   21   22 2   
    25   21   29 1   
    26   23   26 1   
    27   23   27 1   
    28   23   28 1   
    29   29   30 1   
    30   29   37 1   
    31   30   31 1   
    32   30   33 1   
    33   30   38 1   
    34   31   32 2   
    35   31   41 1   
    36   33   34 1   
    37   33   39 1   
    38   33   40 1   
    39   34   35 1   
    40   34   36 1   
    41   41   42 1   
    42   41   45 1   
    43   42   43 1   
    44   42   46 1   
    45   42   47 1   
    46   43   44 2   
    47   43   48 1   
    48   48   49 1   
    49   48   56 1   
    50   49   50 1   
    51   49   52 1   
    52   49   57 1   
    53   50   51 2   
    54   50   62 1   
    55   52   53 1   
    56   52   58 1   
    57   52   59 1   
    58   53   54 1   
    59   53   55 2   
    60   54   60 1   
    61   54   61 1   
    62   62   63 1   
    63   62   66 1   
    64   63   64 1   
    65   63   67 1   
    66   63   68 1   
    67   64   65 2   
    68   64   69 1   
    69   69   70 1   
    70   69   76 1   
    71   70   71 1   
    72   70   73 1   
    73   70   77 1   
    74   71   72 2   
    75   71   83 1   
    76   73   74 1   
    77   73   75 1   
    78   73   78 1   
    79   74   80 1   
    80   74   81 1   
    81   74   82 1   
    82   75   79 1   
    83   83   84 1   
    84   83   91 1   
    85   84   85 1   
    86   84   87 1   
    87   84   92 1   
    88   85   86 2   
    89   85  102 1   
    90   87   88 1   
    91   87   89 1   
    92   87   93 1   
    93   88   90 1   
    94   88   94 1   
    95   88   95 1   
    96   89   96 1   
    97   89   97 1   
    98   89   98 1   
    99   90   99 1   
   100   90  100 1   
   101   90  101 1   
   102  102  103 1   
   103  102  110 1   
   104  103  104 1   
   105  103  106 1   
   106  103  111 1   
   107  104  105 2   
   108  104  114 1   
   109  106  107 1   
   110  106  112 1   
   111  106  113 1   
   112  107  108 1   
   113  107  109 1   
   114  114  115 1   
   115  114  125 1   
   116  115  116 1   
   117  115  118 1   
   118  115  126 1   
   119  116  117 2   
   120  116  134 1   
   121  118  119 1   
   122  118  127 1   
   123  118  128 1   
   124  119  120 ar  
   125  119  121 ar  
   126  120  122 ar  
   127  120  129 1   
   128  121  123 ar  
   129  121  130 1   
   130  122  124 ar  
   131  122  131 1   
   132  123  124 ar  
   133  123  132 1   
   134  124  133 1   
   135  134  135 1   
   136  134  140 1   
   137  135  136 1   
   138  135  138 1   
   139  135  141 1   
   140  136  137 2   
   141  136  148 1   
   142  138  139 1   
   143  138  142 1   
   144  138  143 1   
   145  139  140 1   
   146  139  144 1   
   147  139  145 1   
   148  140  146 1   
   149  140  147 1   
   150  148  149 1   
   151  148  157 1   
   152  149  150 1   
   153  149  152 1   
   154  149  158 1   
   155  150  151 2   
   156  150  163 1   
   157  152  153 1   
   158  152  159 1   
   159  152  160 1   
   160  153  154 1   
   161  153  161 1   
   162  153  162 1   
   163  154  155 1   
   164  154  156 1   
   165  163  164 1   
   166  163  168 1   
   167  164  165 1   
   168  164  166 1   
   169  164  167 1   
   170  170  171 1   
   171  170  172 1   
   172  173  174 1   
   173  173  175 1   
@<TRIPOS>SUBSTRUCTURE
     1 MOL         1 TEMP              0 ****  ****    0 ROOT
