@<TRIPOS>MOLECULE
MOL
  175   173     1     0     0
SMALL
resp


@<TRIPOS>ATOM
      1 C1          0.6270    3.8930    5.4940 c3        1 MOL     -0.276827
      2 C2         -0.1760    4.0230    4.1190 c         1 MOL      0.667326
      3 O1          0.4240    4.4460    3.1720 o         1 MOL     -0.500875
      4 H1          0.0360    3.3180    6.2070 hc        1 MOL      0.062450
      5 H2          1.5750    3.3850    5.3150 hc        1 MOL      0.062450
      6 H3          0.8170    4.8860    5.8990 hc        1 MOL      0.062450
      7 N1         -1.5000    3.6960    4.0640 n         1 MOL     -0.585980
      8 C3         -2.1660    3.3740    2.8020 c3        1 MOL      0.085589
      9 C4         -2.2670    4.6390    1.9230 c         1 MOL      0.650163
     10 O2         -2.5870    5.6820    2.3720 o         1 MOL     -0.577703
     11 C5         -3.5400    2.6810    3.0230 c3        1 MOL     -0.339912
     12 C6         -4.2780    2.4570    1.6720 c         1 MOL      0.711772
     13 O3         -3.7270    1.8130    0.7460 o         1 MOL     -0.629712
     14 O4         -5.4430    2.8810    1.5600 o         1 MOL     -0.629712
     15 H4         -2.0120    3.3660    4.8710 hn        1 MOL      0.314526
     16 H5         -1.5310    2.6650    2.2580 h1        1 MOL      0.047845
     17 H6         -4.0720    3.4240    3.6120 hc        1 MOL      0.067332
     18 H7         -3.4890    1.8210    3.7020 hc        1 MOL      0.067332
     19 N2         -1.8920    4.4860    0.6780 n         1 MOL     -0.520803
     20 C7         -2.0900    5.5090   -0.4660 c3        1 MOL      0.368867
     21 C8         -3.2150    5.2220   -1.4940 c         1 MOL      0.390776
     22 O5         -3.5340    6.1840   -2.2260 o         1 MOL     -0.571697
     23 C9         -0.6750    5.6060   -1.0630 c3        1 MOL     -0.184496
     24 H8         -1.5530    3.5990    0.3430 hn        1 MOL      0.221779
     25 H9         -2.3480    6.4680   -0.0180 h1        1 MOL     -0.002269
     26 H10         0.1250    5.7030   -0.3230 hc        1 MOL      0.040334
     27 H11        -0.5120    4.7410   -1.7050 hc        1 MOL      0.040334
     28 H12        -0.6490    6.4870   -1.6950 hc        1 MOL      0.040334
     29 N3         -3.8510    4.0190   -1.5970 n         1 MOL     -0.284984
     30 C10        -4.7930    3.6480   -2.6790 c3        1 MOL      0.163306
     31 C11        -6.0210    2.7980   -2.2170 c         1 MOL      0.293106
     32 O6         -6.8890    2.4630   -3.0380 o         1 MOL     -0.566394
     33 C12        -4.0090    2.8660   -3.7980 c3        1 MOL     -0.320943
     34 C13        -3.2930    1.5790   -3.2500 c         1 MOL      0.753338
     35 O7         -3.5740    0.9660   -2.1850 o         1 MOL     -0.684836
     36 O8         -2.4710    1.0900   -4.0210 o         1 MOL     -0.684836
     37 H13        -3.6240    3.3000   -0.9220 hn        1 MOL      0.162119
     38 H14        -5.3310    4.5100   -3.0660 h1        1 MOL      0.061242
     39 H15        -3.1610    3.5200   -4.0010 hc        1 MOL      0.080545
     40 H16        -4.6450    2.6860   -4.6670 hc        1 MOL      0.080545
     41 N4         -6.0980    2.3560   -1.0040 n         1 MOL     -0.011845
     42 C14        -7.2290    1.5240   -0.6440 c3        1 MOL     -0.183480
     43 C15        -7.2140    0.0140   -0.9970 c         1 MOL      0.450349
     44 O9         -8.2770   -0.6290   -0.8180 o         1 MOL     -0.603642
     45 H17        -5.4200    2.5340   -0.2810 hn        1 MOL      0.040744
     46 H18        -8.1260    2.0430   -0.9800 h1        1 MOL      0.107130
     47 H19        -7.2640    1.6460    0.4470 h1        1 MOL      0.107130
     48 N5         -6.1480   -0.6120   -1.5780 n         1 MOL     -0.080536
     49 C16        -6.1900   -1.8840   -2.1760 c3        1 MOL     -0.078972
     50 C17        -6.1190   -3.0880   -1.2530 c         1 MOL      0.388828
     51 O10        -5.9520   -4.2360   -1.6600 o         1 MOL     -0.485565
     52 C18        -5.0290   -2.0140   -3.2320 c3        1 MOL     -0.099869
     53 C19        -3.5780   -2.0180   -2.7550 c         1 MOL      0.693911
     54 N6         -2.7070   -2.0730   -3.7120 n         1 MOL     -0.668657
     55 O11        -3.2650   -2.1010   -1.5530 o         1 MOL     -0.596700
     56 H20        -5.2610   -0.1190   -1.5800 hn        1 MOL      0.147916
     57 H21        -7.0690   -1.9230   -2.8210 h1        1 MOL      0.125411
     58 H22        -5.1880   -1.2450   -3.9850 hc        1 MOL      0.025556
     59 H23        -5.0830   -2.9760   -3.7400 hc        1 MOL      0.025556
     60 H24        -3.0920   -1.9040   -4.6190 hn        1 MOL      0.337526
     61 H25        -1.7050   -1.9900   -3.5690 hn        1 MOL      0.337526
     62 N7         -6.2340   -2.9900    0.1250 n         1 MOL     -0.201403
     63 C20        -6.4540   -4.0550    1.0630 c3        1 MOL     -0.234721
     64 C21        -5.1510   -4.7470    1.5320 c         1 MOL      0.586804
     65 O12        -5.2990   -5.7880    2.1270 o         1 MOL     -0.578362
     66 H26        -6.2760   -2.0430    0.4730 hn        1 MOL      0.226143
     67 H27        -7.1490   -4.7820    0.6330 h1        1 MOL      0.110464
     68 H28        -6.9790   -3.6730    1.9310 h1        1 MOL      0.110464
     69 N8         -4.0570   -4.1380    1.2050 n         1 MOL     -0.394484
     70 C22        -2.6690   -4.7420    1.3820 c3        1 MOL     -0.074651
     71 C23        -1.5380   -3.6230    1.3900 c         1 MOL      0.592197
     72 O13        -1.7050   -2.4860    0.8090 o         1 MOL     -0.690720
     73 C24        -2.1560   -5.6150    0.2110 c3        1 MOL      0.544075
     74 C25        -2.9810   -6.9090    0.1650 c3        1 MOL     -0.338620
     75 O14        -2.3730   -5.0160   -1.0340 oh        1 MOL     -0.660740
     76 H29        -4.1820   -3.2550    0.7170 hn        1 MOL      0.239914
     77 H30        -2.5170   -5.3320    2.2850 h1        1 MOL      0.071978
     78 H31        -1.1090   -5.8610    0.4070 h1        1 MOL     -0.052180
     79 H32        -2.5000   -4.0670   -0.9970 ho        1 MOL      0.407510
     80 H33        -3.0340   -7.1980    1.2070 hc        1 MOL      0.076238
     81 H34        -4.0020   -6.8540   -0.2080 hc        1 MOL      0.076238
     82 H35        -2.4610   -7.7280   -0.3380 hc        1 MOL      0.076238
     83 N9         -0.4290   -3.8940    2.0870 n         1 MOL     -0.509058
     84 C26         0.7390   -2.9430    2.1440 c3        1 MOL     -0.044166
     85 C27         1.5220   -3.0730    0.8440 c         1 MOL      0.618701
     86 O15         2.0360   -4.1770    0.5180 o         1 MOL     -0.598753
     87 C28         1.5500   -3.1200    3.4380 c3        1 MOL      0.073599
     88 C29         0.7390   -2.7660    4.6600 c3        1 MOL      0.145829
     89 C30         2.7420   -2.1860    3.4960 c3        1 MOL     -0.113437
     90 C31         1.3840   -3.0710    5.9430 c3        1 MOL     -0.122177
     91 H36        -0.3690   -4.8620    2.3710 hn        1 MOL      0.276270
     92 H37         0.3780   -1.9120    2.1490 h1        1 MOL      0.159695
     93 H38         2.0480   -4.0930    3.4830 hc        1 MOL      0.007576
     94 H39        -0.2600   -3.1970    4.6470 hc        1 MOL     -0.050503
     95 H40         0.5410   -1.7090    4.4860 hc        1 MOL     -0.050503
     96 H41         3.2700   -2.3520    2.5560 hc        1 MOL      0.015853
     97 H42         2.4310   -1.1460    3.4130 hc        1 MOL      0.015853
     98 H43         3.4670   -2.4600    4.2690 hc        1 MOL      0.015853
     99 H44         2.1830   -2.3740    6.1900 hc        1 MOL      0.019562
    100 H45         0.6530   -2.9970    6.7540 hc        1 MOL      0.019562
    101 H46         1.7000   -4.1090    5.8300 hc        1 MOL      0.019562
    102 N10         1.7190   -1.9460    0.1300 n         1 MOL     -0.306944
    103 C32         2.6190   -1.8660   -1.0740 c3        1 MOL      0.034650
    104 C33         4.1170   -1.5960   -0.7460 c         1 MOL      0.390998
    105 O16         4.3950   -1.1570    0.3560 o         1 MOL     -0.304928
    106 C34         2.0310   -0.9540   -2.1700 c3        1 MOL     -0.237087
    107 C35         0.5330   -1.1720   -2.4980 c         1 MOL      0.715239
    108 O17        -0.2750   -0.6490   -1.7460 o         1 MOL     -0.659642
    109 O18         0.2580   -1.8590   -3.5200 o         1 MOL     -0.659642
    110 H47         1.2100   -1.1540    0.4970 hn        1 MOL      0.185911
    111 H48         2.5390   -2.8490   -1.5290 h1        1 MOL      0.082899
    112 H49         2.6010   -1.1300   -3.0830 hc        1 MOL      0.043417
    113 H50         2.1620    0.0710   -1.8060 hc        1 MOL      0.043417
    114 N11         5.0960   -1.7680   -1.6670 n         1 MOL     -0.590087
    115 C36         6.4930   -1.4170   -1.4040 c3        1 MOL      0.386048
    116 C37         6.8270    0.0490   -0.9910 c         1 MOL      0.278679
    117 O19         7.5050    0.2770    0.0450 o         1 MOL     -0.467483
    118 C38         7.3120   -1.8440   -2.5510 c3        1 MOL     -0.196333
    119 C39         8.8300   -1.7510   -2.3760 ca        1 MOL      0.155721
    120 C40         9.4560   -2.5750   -1.4190 ca        1 MOL     -0.231929
    121 C41         9.6140   -0.8680   -3.1450 ca        1 MOL     -0.231929
    122 C42        10.8470   -2.4240   -1.1840 ca        1 MOL     -0.068273
    123 C43        11.0010   -0.7900   -2.9050 ca        1 MOL     -0.068273
    124 C44        11.6140   -1.5800   -1.9110 ca        1 MOL     -0.129525
    125 H51         4.7920   -2.1330   -2.5580 hn        1 MOL      0.328451
    126 H52         6.8460   -2.0250   -0.5760 h1        1 MOL      0.039309
    127 H53         7.0500   -1.3230   -3.4730 hc        1 MOL      0.055425
    128 H54         7.0690   -2.8770   -2.8090 hc        1 MOL      0.055425
    129 H55         8.8330   -3.2790   -0.8930 ha        1 MOL      0.137477
    130 H56         9.1370   -0.2020   -3.8470 ha        1 MOL      0.137477
    131 H57        11.2900   -2.9880   -0.3800 ha        1 MOL      0.099843
    132 H58        11.5830   -0.0410   -3.4240 ha        1 MOL      0.099843
    133 H59        12.6760   -1.4580   -1.7160 ha        1 MOL      0.102334
    134 N12         6.3240    1.1110   -1.7040 n         1 MOL     -0.144392
    135 C45         6.5030    2.5250   -1.2620 c3        1 MOL      0.095773
    136 C46         5.8370    2.7360    0.1160 c         1 MOL      0.279860
    137 O20         6.3570    3.4860    0.9140 o         1 MOL     -0.494424
    138 C47         5.8460    3.4570   -2.2780 c3        1 MOL     -0.020708
    139 C48         5.7140    2.5420   -3.4910 c3        1 MOL     -0.016424
    140 C49         5.5400    1.1010   -2.8990 c3        1 MOL     -0.158540
    141 H60         7.5620    2.7750   -1.1630 h1        1 MOL      0.062613
    142 H61         4.8330    3.6690   -1.9340 hc        1 MOL      0.018707
    143 H62         6.5240    4.2970   -2.4820 hc        1 MOL      0.018707
    144 H63         4.9370    2.9320   -4.1360 hc        1 MOL      0.035955
    145 H64         6.5880    2.4670   -4.1390 hc        1 MOL      0.035955
    146 H65         4.5190    0.8010   -2.6710 h1        1 MOL      0.067428
    147 H66         5.9150    0.4340   -3.6800 h1        1 MOL      0.067428
    148 N13         4.7290    2.0570    0.4280 n         1 MOL     -0.057464
    149 C50         4.0170    2.1770    1.7140 c3        1 MOL     -0.174303
    150 C51         4.7850    1.4140    2.8870 c         1 MOL      0.510073
    151 O21         4.7920    1.9010    3.9580 o         1 MOL     -0.563419
    152 C52         2.6210    1.5330    1.6190 c3        1 MOL      0.112276
    153 C53         1.7110    2.2950    0.7320 c3        1 MOL     -0.286532
    154 C54         0.3720    1.5570    0.5050 c         1 MOL      0.784008
    155 O22        -0.5120    1.9190   -0.2850 o         1 MOL     -0.724329
    156 O23         0.1030    0.5330    1.1670 o         1 MOL     -0.724329
    157 H67         4.2440    1.5300   -0.2790 hn        1 MOL      0.285534
    158 H68         3.7560    3.1910    2.0100 h1        1 MOL      0.109972
    159 H69         2.1850    1.4550    2.6150 hc        1 MOL      0.005055
    160 H70         2.7980    0.5380    1.2170 hc        1 MOL      0.005055
    161 H71         2.2540    2.1820   -0.2100 hc        1 MOL      0.063039
    162 H72         1.6370    3.3370    1.0420 hc        1 MOL      0.063039
    163 N14         5.4070    0.2720    2.6160 n         1 MOL      0.006217
    164 C55         6.3460   -0.4450    3.4960 c3        1 MOL     -0.348133
    165 H73         6.6840   -1.3560    3.0010 h1        1 MOL      0.117543
    166 H74         7.2040    0.1920    3.7090 h1        1 MOL      0.117543
    167 H75         5.8450   -0.7040    4.4290 h1        1 MOL      0.117543
    168 H76         5.2950   -0.0750    1.6780 hn        1 MOL     -0.024702
    169 Ca1        -2.1070   -0.0330   -0.2360 Ca        1 MOL      1.658853
    170 O24        -4.1110   -0.8350    1.4110 oh        1 MOL     -0.763426
    171 H77        -4.9160   -0.8420    1.9260 ho        1 MOL      0.375499
    172 H78        -3.4040   -0.8650    2.0550 ho        1 MOL      0.375499
    173 O25        -1.9840   -0.0750    2.6390 oh        1 MOL     -0.763426
    174 H79        -1.0870    0.2270    2.4990 ho        1 MOL      0.375499
    175 H80        -2.2330    0.3200    3.4820 ho        1 MOL      0.375499
@<TRIPOS>BOND
     1    1    2 1   
     2    1    4 1   
     3    1    5 1   
     4    1    6 1   
     5    2    3 2   
     6    2    7 1   
     7    7    8 1   
     8    7   15 1   
     9    8    9 1   
    10    8   11 1   
    11    8   16 1   
    12    9   10 2   
    13    9   19 1   
    14   11   12 1   
    15   11   17 1   
    16   11   18 1   
    17   12   13 1   
    18   12   14 1   
    19   19   20 1   
    20   19   24 1   
    21   20   21 1   
    22   20   23 1   
    23   20   25 1   
    24   21   22 2   
    25   21   29 1   
    26   23   26 1   
    27   23   27 1   
    28   23   28 1   
    29   29   30 1   
    30   29   37 1   
    31   30   31 1   
    32   30   33 1   
    33   30   38 1   
    34   31   32 2   
    35   31   41 1   
    36   33   34 1   
    37   33   39 1   
    38   33   40 1   
    39   34   35 1   
    40   34   36 1   
    41   41   42 1   
    42   41   45 1   
    43   42   43 1   
    44   42   46 1   
    45   42   47 1   
    46   43   44 2   
    47   43   48 1   
    48   48   49 1   
    49   48   56 1   
    50   49   50 1   
    51   49   52 1   
    52   49   57 1   
    53   50   51 2   
    54   50   62 1   
    55   52   53 1   
    56   52   58 1   
    57   52   59 1   
    58   53   54 1   
    59   53   55 2   
    60   54   60 1   
    61   54   61 1   
    62   62   63 1   
    63   62   66 1   
    64   63   64 1   
    65   63   67 1   
    66   63   68 1   
    67   64   65 2   
    68   64   69 1   
    69   69   70 1   
    70   69   76 1   
    71   70   71 1   
    72   70   73 1   
    73   70   77 1   
    74   71   72 2   
    75   71   83 1   
    76   73   74 1   
    77   73   75 1   
    78   73   78 1   
    79   74   80 1   
    80   74   81 1   
    81   74   82 1   
    82   75   79 1   
    83   83   84 1   
    84   83   91 1   
    85   84   85 1   
    86   84   87 1   
    87   84   92 1   
    88   85   86 2   
    89   85  102 1   
    90   87   88 1   
    91   87   89 1   
    92   87   93 1   
    93   88   90 1   
    94   88   94 1   
    95   88   95 1   
    96   89   96 1   
    97   89   97 1   
    98   89   98 1   
    99   90   99 1   
   100   90  100 1   
   101   90  101 1   
   102  102  103 1   
   103  102  110 1   
   104  103  104 1   
   105  103  106 1   
   106  103  111 1   
   107  104  105 2   
   108  104  114 1   
   109  106  107 1   
   110  106  112 1   
   111  106  113 1   
   112  107  108 1   
   113  107  109 1   
   114  114  115 1   
   115  114  125 1   
   116  115  116 1   
   117  115  118 1   
   118  115  126 1   
   119  116  117 2   
   120  116  134 1   
   121  118  119 1   
   122  118  127 1   
   123  118  128 1   
   124  119  120 ar  
   125  119  121 ar  
   126  120  122 ar  
   127  120  129 1   
   128  121  123 ar  
   129  121  130 1   
   130  122  124 ar  
   131  122  131 1   
   132  123  124 ar  
   133  123  132 1   
   134  124  133 1   
   135  134  135 1   
   136  134  140 1   
   137  135  136 1   
   138  135  138 1   
   139  135  141 1   
   140  136  137 2   
   141  136  148 1   
   142  138  139 1   
   143  138  142 1   
   144  138  143 1   
   145  139  140 1   
   146  139  144 1   
   147  139  145 1   
   148  140  146 1   
   149  140  147 1   
   150  148  149 1   
   151  148  157 1   
   152  149  150 1   
   153  149  152 1   
   154  149  158 1   
   155  150  151 2   
   156  150  163 1   
   157  152  153 1   
   158  152  159 1   
   159  152  160 1   
   160  153  154 1   
   161  153  161 1   
   162  153  162 1   
   163  154  155 1   
   164  154  156 1   
   165  163  164 1   
   166  163  168 1   
   167  164  165 1   
   168  164  166 1   
   169  164  167 1   
   170  170  171 1   
   171  170  172 1   
   172  173  174 1   
   173  173  175 1   
@<TRIPOS>SUBSTRUCTURE
     1 MOL         1 TEMP              0 ****  ****    0 ROOT
