@<TRIPOS>MOLECULE
MOL
  172   171     1     0     0
SMALL
resp


@<TRIPOS>ATOM
      1 C1         -0.5060   -3.5060    5.4530 c3        1 MOL     -0.363741
      2 C2          0.1750   -3.5780    4.0900 c         1 MOL      0.763463
      3 O1         -0.4190   -3.9280    3.0550 o         1 MOL     -0.579373
      4 H1         -0.9800   -2.5320    5.5710 hc        1 MOL      0.085157
      5 H2         -1.2620   -4.2880    5.5240 hc        1 MOL      0.085157
      6 H3          0.2370   -3.6460    6.2390 hc        1 MOL      0.085157
      7 N1          1.4580   -3.3100    4.0560 n         1 MOL     -0.609224
      8 C3          2.2130   -3.1960    2.8100 c3        1 MOL      0.251676
      9 C4          2.3390   -4.4640    2.0170 c         1 MOL      0.414445
     10 O2          2.4600   -5.5560    2.5580 o         1 MOL     -0.567859
     11 C5          3.5610   -2.6140    3.0690 c3        1 MOL     -0.325284
     12 C6          4.3380   -2.4240    1.7390 c         1 MOL      0.811875
     13 O3          4.0310   -1.4370    1.0790 o         1 MOL     -0.728966
     14 O4          5.2230   -3.2400    1.4330 o         1 MOL     -0.728966
     15 H4          1.8450   -2.7570    4.8030 hn        1 MOL      0.299122
     16 H5          1.7170   -2.4410    2.2030 h1        1 MOL     -0.015117
     17 H6          4.2170   -3.2960    3.6070 hc        1 MOL      0.060314
     18 H7          3.5500   -1.6650    3.5950 hc        1 MOL      0.060314
     19 N2          2.3250   -4.3700    0.7180 n         1 MOL     -0.129589
     20 C7          2.6880   -5.4020   -0.2440 c3        1 MOL      0.143820
     21 C8          3.4430   -4.8680   -1.5050 c         1 MOL      0.545595
     22 O5          3.2420   -5.4410   -2.6110 o         1 MOL     -0.556636
     23 C9          1.3370   -6.0680   -0.6170 c3        1 MOL     -0.195244
     24 H8          2.0010   -3.4730    0.3800 hn        1 MOL      0.175432
     25 H9          3.3000   -6.1350    0.2730 h1        1 MOL      0.029240
     26 H10         0.5440   -5.3550   -0.8250 hc        1 MOL      0.039603
     27 H11         1.4960   -6.8360   -1.3760 hc        1 MOL      0.039603
     28 H12         0.9960   -6.6910    0.2160 hc        1 MOL      0.039603
     29 N3          4.3890   -3.9350   -1.2950 n         1 MOL     -0.450220
     30 C10         5.3420   -3.4080   -2.3450 c3        1 MOL      0.062190
     31 C11         6.5810   -2.6100   -1.8840 c         1 MOL      0.416700
     32 O6          7.5940   -2.5220   -2.6380 o         1 MOL     -0.567547
     33 C12         4.4910   -2.6640   -3.2860 c3        1 MOL     -0.145260
     34 C13         3.5880   -1.6200   -2.6200 c         1 MOL      0.612593
     35 O7          4.1220   -0.8580   -1.7780 o         1 MOL     -0.690565
     36 O8          2.3300   -1.5860   -2.6930 o         1 MOL     -0.690565
     37 H13         4.5480   -3.5800   -0.3630 hn        1 MOL      0.185929
     38 H14         5.6950   -4.2320   -2.9690 h1        1 MOL      0.068079
     39 H15         3.8790   -3.3950   -3.8030 hc        1 MOL      0.051644
     40 H16         5.1560   -2.1190   -3.9580 hc        1 MOL      0.051644
     41 N4          6.5800   -2.0840   -0.6640 n         1 MOL     -0.168532
     42 C14         7.6150   -1.1570   -0.2270 c3        1 MOL     -0.268676
     43 C15         7.5220    0.3210   -0.7620 c         1 MOL      0.572126
     44 O9          8.5330    1.0580   -0.6580 o         1 MOL     -0.643629
     45 H17         5.8530   -2.2910   -0.0030 hn        1 MOL      0.308094
     46 H18         8.5580   -1.5740   -0.5800 h1        1 MOL      0.118651
     47 H19         7.6570   -1.1680    0.8610 h1        1 MOL      0.118651
     48 N5          6.4600    0.8530   -1.3530 n         1 MOL     -0.162282
     49 C16         6.3220    2.2050   -1.9990 c3        1 MOL      0.063350
     50 C17         6.0230    3.3780   -1.0260 c         1 MOL      0.453929
     51 O10         5.8820    4.4710   -1.4160 o         1 MOL     -0.500924
     52 C18         5.1940    2.0660   -3.0700 c3        1 MOL     -0.448560
     53 C19         3.7610    1.9220   -2.4910 c         1 MOL      0.810645
     54 N6          2.7400    1.8440   -3.3470 n         1 MOL     -0.636237
     55 O11         3.5470    2.0180   -1.2840 o         1 MOL     -0.741462
     56 H20         5.6490    0.2520   -1.4040 hn        1 MOL      0.093435
     57 H21         7.2700    2.3900   -2.4980 h1        1 MOL      0.098179
     58 H22         5.4380    1.1460   -3.5970 hc        1 MOL      0.124470
     59 H23         5.1670    2.9670   -3.6840 hc        1 MOL      0.124470
     60 H24         2.9830    2.0010   -4.3230 hn        1 MOL      0.304191
     61 H25         1.8540    2.2450   -3.0910 hn        1 MOL      0.304191
     62 N7          6.0110    3.0500    0.2890 n         1 MOL     -0.189461
     63 C20         6.0250    3.9870    1.3920 c3        1 MOL     -0.349083
     64 C21         4.6470    4.6330    1.6990 c         1 MOL      0.600812
     65 O12         4.5390    5.4300    2.6590 o         1 MOL     -0.594115
     66 H26         6.0320    2.0760    0.5510 hn        1 MOL      0.205220
     67 H27         6.7510    4.7920    1.2980 h1        1 MOL      0.145467
     68 H28         6.2510    3.4510    2.3190 h1        1 MOL      0.145467
     69 N8          3.5940    4.2660    0.9670 n         1 MOL     -0.214472
     70 C22         2.2410    4.7120    1.2230 c3        1 MOL     -0.418266
     71 C23         1.2850    3.5330    1.4240 c         1 MOL      0.916842
     72 O13         1.5710    2.4690    0.8530 o         1 MOL     -0.741686
     73 C24         1.6580    5.7370    0.2030 c3        1 MOL      0.491128
     74 C25         2.5010    7.0140    0.0130 c3        1 MOL     -0.577156
     75 O14         1.4840    5.0380   -0.9990 oh        1 MOL     -0.608189
     76 H29         3.8300    3.8220    0.0940 hn        1 MOL      0.282368
     77 H30         2.2790    5.1730    2.2080 h1        1 MOL      0.119308
     78 H31         0.6340    6.0860    0.3790 h1        1 MOL      0.007303
     79 H32         1.3120    4.1000   -0.8580 ho        1 MOL      0.424459
     80 H33         2.9260    7.4240    0.9300 hc        1 MOL      0.150934
     81 H34         3.4080    6.7850   -0.5460 hc        1 MOL      0.150934
     82 H35         1.8620    7.7320   -0.5040 hc        1 MOL      0.150934
     83 N9          0.1490    3.7500    2.0510 n         1 MOL     -0.740714
     84 C26        -1.0210    2.8260    1.9530 c3        1 MOL     -0.033078
     85 C27        -1.7370    3.0030    0.6180 c         1 MOL      0.394926
     86 O15        -2.3430    4.0890    0.2750 o         1 MOL     -0.566534
     87 C28        -1.9930    2.9860    3.1840 c3        1 MOL      0.345034
     88 C29        -1.1780    2.9190    4.4930 c3        1 MOL      0.024847
     89 C30        -3.0210    1.8250    3.2180 c3        1 MOL     -0.158488
     90 C31        -1.9340    3.5330    5.7160 c3        1 MOL     -0.291936
     91 H36         0.0280    4.5560    2.6570 hn        1 MOL      0.331274
     92 H37        -0.5840    1.8300    2.0090 h1        1 MOL      0.070804
     93 H38        -2.6290    3.8730    3.1490 hc        1 MOL     -0.036830
     94 H39        -0.4120    3.6840    4.3970 hc        1 MOL      0.012145
     95 H40        -0.7690    1.9250    4.6960 hc        1 MOL      0.012145
     96 H41        -3.8020    1.9580    3.9660 hc        1 MOL      0.016517
     97 H42        -3.5310    1.7920    2.2590 hc        1 MOL      0.016517
     98 H43        -2.4510    0.8970    3.3470 hc        1 MOL      0.016517
     99 H44        -3.0130    3.4400    5.5590 hc        1 MOL      0.063239
    100 H45        -1.5140    3.0340    6.5850 hc        1 MOL      0.063239
    101 H46        -1.7570    4.5990    5.8130 hc        1 MOL      0.063239
    102 N10        -1.6690    1.9810   -0.2480 n         1 MOL     -0.039033
    103 C32        -2.4530    1.9070   -1.5100 c3        1 MOL      0.020576
    104 C33        -3.9190    1.4370   -1.1570 c         1 MOL      0.446056
    105 O16        -4.0890    0.9030   -0.0240 o         1 MOL     -0.381549
    106 C34        -1.8010    0.9010   -2.4530 c3        1 MOL     -0.195773
    107 C35        -0.3930    1.3050   -2.8050 c         1 MOL      0.694873
    108 O17         0.5240    1.1220   -1.9860 o         1 MOL     -0.657554
    109 O18        -0.1280    1.8860   -3.8610 o         1 MOL     -0.657554
    110 H47        -1.0090    1.2240   -0.1510 hn        1 MOL      0.015758
    111 H48        -2.5080    2.8090   -2.1120 h1        1 MOL      0.067071
    112 H49        -2.4140    0.7520   -3.3360 hc        1 MOL      0.056287
    113 H50        -1.7820   -0.0070   -1.8490 hc        1 MOL      0.056287
    114 N11        -4.9740    1.6500   -1.9590 n         1 MOL     -0.678597
    115 C36        -6.3490    1.2890   -1.5710 c3        1 MOL      0.552509
    116 C37        -6.5820   -0.2160   -1.1610 c         1 MOL      0.371008
    117 O19        -7.2010   -0.3730   -0.0890 o         1 MOL     -0.500172
    118 C38        -7.3640    1.7270   -2.6030 c3        1 MOL     -0.313062
    119 C39        -8.8040    1.4440   -2.2840 ca        1 MOL      0.100927
    120 C40        -9.4340    2.2520   -1.3390 ca        1 MOL     -0.135469
    121 C41        -9.5050    0.3770   -2.8260 ca        1 MOL     -0.135469
    122 C42       -10.6660    1.9180   -0.7510 ca        1 MOL     -0.187635
    123 C43       -10.7920    0.1530   -2.4540 ca        1 MOL     -0.187635
    124 C44       -11.2490    0.7160   -1.2580 ca        1 MOL      0.023570
    125 H51        -4.8720    2.2830   -2.7420 hn        1 MOL      0.338101
    126 H52        -6.6730    1.8660   -0.7040 h1        1 MOL     -0.011881
    127 H53        -7.0890    1.1720   -3.5000 hc        1 MOL      0.068812
    128 H54        -7.2840    2.8030   -2.7610 hc        1 MOL      0.068812
    129 H55        -8.9180    3.0690   -0.8500 ha        1 MOL      0.115780
    130 H56        -9.0090   -0.1650   -3.6180 ha        1 MOL      0.115780
    131 H57       -11.0300    2.5190    0.0680 ha        1 MOL      0.130823
    132 H58       -11.4380   -0.5100   -3.0140 ha        1 MOL      0.130823
    133 H59       -12.2610    0.4520   -0.9740 ha        1 MOL      0.052013
    134 N12        -5.9490   -1.1850   -1.8740 n         1 MOL     -0.299443
    135 C45        -5.9780   -2.6330   -1.5150 c3        1 MOL      0.171393
    136 C46        -5.5780   -2.9200   -0.0820 c         1 MOL      0.248645
    137 O20        -6.0660   -3.8010    0.6200 o         1 MOL     -0.484763
    138 C47        -5.1250   -3.3750   -2.5220 c3        1 MOL      0.038435
    139 C48        -5.3150   -2.4760   -3.7370 c3        1 MOL     -0.185594
    140 C49        -5.2140   -1.0510   -3.1190 c3        1 MOL      0.099616
    141 H60        -6.9130   -3.1860   -1.5960 h1        1 MOL      0.034018
    142 H61        -4.0870   -3.4160   -2.1690 hc        1 MOL      0.020858
    143 H62        -5.5700   -4.3700   -2.6010 hc        1 MOL      0.020858
    144 H63        -4.5400   -2.5350   -4.4930 hc        1 MOL      0.059914
    145 H64        -6.3280   -2.6460   -4.1220 hc        1 MOL      0.059914
    146 H65        -4.1860   -0.7850   -2.8900 h1        1 MOL      0.030442
    147 H66        -5.6180   -0.3380   -3.8330 h1        1 MOL      0.030442
    148 N13        -4.6030   -2.0960    0.3960 n         1 MOL     -0.049808
    149 C50        -4.0120   -2.1770    1.7200 c3        1 MOL     -0.226964
    150 C51        -4.8480   -1.4800    2.7470 c         1 MOL      0.522681
    151 O21        -4.8450   -1.8620    3.8990 o         1 MOL     -0.588648
    152 C52        -2.5710   -1.6460    1.7310 c3        1 MOL      0.103676
    153 C53        -1.7640   -2.0690    0.4930 c3        1 MOL     -0.024627
    154 C54        -0.3740   -1.5590    0.3500 c         1 MOL      0.450403
    155 O22         0.5390   -2.1860   -0.1490 o         1 MOL     -0.605349
    156 O23        -0.0990   -0.4450    0.8790 o         1 MOL     -0.605349
    157 H67        -4.2360   -1.3000   -0.1140 hn        1 MOL      0.118112
    158 H68        -3.8910   -3.2200    1.9830 h1        1 MOL      0.131601
    159 H69        -2.0530   -2.0770    2.5840 hc        1 MOL      0.000092
    160 H70        -2.5660   -0.5500    1.6620 hc        1 MOL      0.000092
    161 H71        -2.3320   -1.7560   -0.3900 hc        1 MOL      0.044349
    162 H72        -1.7850   -3.1550    0.4630 hc        1 MOL      0.044349
    163 N14        -5.5380   -0.4000    2.4570 n         1 MOL     -0.017400
    164 C55        -6.5020    0.2610    3.3410 c3        1 MOL     -0.233399
    165 H73        -6.4660    1.3380    3.1770 h1        1 MOL      0.083335
    166 H74        -7.5050   -0.1060    3.1240 h1        1 MOL      0.083335
    167 H75        -6.2510    0.0440    4.3800 h1        1 MOL      0.083335
    168 H76        -5.3680    0.0570    1.5700 hn        1 MOL      0.076650
    169 Ca1         2.1800   -0.0000   -0.4540 Ca        1 MOL      1.770185
    170 O24         1.9430    0.2380    2.2960 oh        1 MOL     -0.745507
    171 H77         1.8710    0.4650    3.2180 ho        1 MOL      0.367874
    172 H78         1.0450    0.0650    2.0200 ho        1 MOL      0.367874
@<TRIPOS>BOND
     1    1    2 1   
     2    1    4 1   
     3    1    5 1   
     4    1    6 1   
     5    2    3 2   
     6    2    7 1   
     7    7    8 1   
     8    7   15 1   
     9    8    9 1   
    10    8   11 1   
    11    8   16 1   
    12    9   10 2   
    13    9   19 1   
    14   11   12 1   
    15   11   17 1   
    16   11   18 1   
    17   12   13 1   
    18   12   14 1   
    19   19   20 1   
    20   19   24 1   
    21   20   21 1   
    22   20   23 1   
    23   20   25 1   
    24   21   22 2   
    25   21   29 1   
    26   23   26 1   
    27   23   27 1   
    28   23   28 1   
    29   29   30 1   
    30   29   37 1   
    31   30   31 1   
    32   30   33 1   
    33   30   38 1   
    34   31   32 2   
    35   31   41 1   
    36   33   34 1   
    37   33   39 1   
    38   33   40 1   
    39   34   35 1   
    40   34   36 1   
    41   41   42 1   
    42   41   45 1   
    43   42   43 1   
    44   42   46 1   
    45   42   47 1   
    46   43   44 2   
    47   43   48 1   
    48   48   49 1   
    49   48   56 1   
    50   49   50 1   
    51   49   52 1   
    52   49   57 1   
    53   50   51 2   
    54   50   62 1   
    55   52   53 1   
    56   52   58 1   
    57   52   59 1   
    58   53   54 1   
    59   53   55 2   
    60   54   60 1   
    61   54   61 1   
    62   62   63 1   
    63   62   66 1   
    64   63   64 1   
    65   63   67 1   
    66   63   68 1   
    67   64   65 2   
    68   64   69 1   
    69   69   70 1   
    70   69   76 1   
    71   70   71 1   
    72   70   73 1   
    73   70   77 1   
    74   71   72 2   
    75   71   83 1   
    76   73   74 1   
    77   73   75 1   
    78   73   78 1   
    79   74   80 1   
    80   74   81 1   
    81   74   82 1   
    82   75   79 1   
    83   83   84 1   
    84   83   91 1   
    85   84   85 1   
    86   84   87 1   
    87   84   92 1   
    88   85   86 2   
    89   85  102 1   
    90   87   88 1   
    91   87   89 1   
    92   87   93 1   
    93   88   90 1   
    94   88   94 1   
    95   88   95 1   
    96   89   96 1   
    97   89   97 1   
    98   89   98 1   
    99   90   99 1   
   100   90  100 1   
   101   90  101 1   
   102  102  103 1   
   103  102  110 1   
   104  103  104 1   
   105  103  106 1   
   106  103  111 1   
   107  104  105 2   
   108  104  114 1   
   109  106  107 1   
   110  106  112 1   
   111  106  113 1   
   112  107  108 1   
   113  107  109 1   
   114  114  115 1   
   115  114  125 1   
   116  115  116 1   
   117  115  118 1   
   118  115  126 1   
   119  116  117 2   
   120  116  134 1   
   121  118  119 1   
   122  118  127 1   
   123  118  128 1   
   124  119  120 ar  
   125  119  121 ar  
   126  120  122 ar  
   127  120  129 1   
   128  121  123 ar  
   129  121  130 1   
   130  122  124 ar  
   131  122  131 1   
   132  123  124 ar  
   133  123  132 1   
   134  124  133 1   
   135  134  135 1   
   136  134  140 1   
   137  135  136 1   
   138  135  138 1   
   139  135  141 1   
   140  136  137 2   
   141  136  148 1   
   142  138  139 1   
   143  138  142 1   
   144  138  143 1   
   145  139  140 1   
   146  139  144 1   
   147  139  145 1   
   148  140  146 1   
   149  140  147 1   
   150  148  149 1   
   151  148  157 1   
   152  149  150 1   
   153  149  152 1   
   154  149  158 1   
   155  150  151 2   
   156  150  163 1   
   157  152  153 1   
   158  152  159 1   
   159  152  160 1   
   160  153  154 1   
   161  153  161 1   
   162  153  162 1   
   163  154  155 1   
   164  154  156 1   
   165  163  164 1   
   166  163  168 1   
   167  164  165 1   
   168  164  166 1   
   169  164  167 1   
   170  170  171 1   
   171  170  172 1   
@<TRIPOS>SUBSTRUCTURE
     1 MOL         1 TEMP              0 ****  ****    0 ROOT
