@<TRIPOS>MOLECULE
MOL
  189   185     1     0     0
SMALL
resp


@<TRIPOS>ATOM
      1 C1         -0.3280    3.2860   -4.6090 c3        1 MOL     -0.257884
      2 C2          0.2910    2.8830   -3.2790 c         1 MOL      0.647465
      3 O1         -0.2870    3.2600   -2.2630 o         1 MOL     -0.560765
      4 H1          0.2130    2.8020   -5.4220 hc        1 MOL      0.064188
      5 H2         -1.3720    2.9750   -4.6330 hc        1 MOL      0.064188
      6 H3         -0.2680    4.3680   -4.7260 hc        1 MOL      0.064188
      7 N1          1.5320    2.3610   -3.2770 n         1 MOL     -0.701140
      8 C3          2.2120    1.8200   -2.0680 c3        1 MOL      0.554948
      9 C4          3.0100    2.8640   -1.3790 c         1 MOL      0.186489
     10 O2          4.2260    3.0540   -1.6330 o         1 MOL     -0.492140
     11 C5          3.0570    0.6090   -2.3900 c3        1 MOL     -0.338914
     12 C6          3.9680    0.1140   -1.2040 c         1 MOL      0.638736
     13 O3          3.5600    0.2210   -0.0240 o         1 MOL     -0.586066
     14 O4          5.0230   -0.4700   -1.5260 o         1 MOL     -0.586066
     15 H4          2.0790    2.2440   -4.1220 hn        1 MOL      0.353870
     16 H5          1.5450    1.4780   -1.2790 h1        1 MOL     -0.081598
     17 H6          3.6730    0.8720   -3.2540 hc        1 MOL      0.051375
     18 H7          2.3190   -0.1660   -2.6280 hc        1 MOL      0.051375
     19 N2          2.3430    3.6540   -0.6000 n         1 MOL     -0.184929
     20 C7          2.9360    4.9150    0.0470 c3        1 MOL      0.003791
     21 C8          3.6160    4.7390    1.4530 c         1 MOL      0.482298
     22 O5          4.3610    5.6580    1.8670 o         1 MOL     -0.544746
     23 C9          1.9880    6.0500   -0.0570 c3        1 MOL     -0.081496
     24 C10         1.7160    6.4030   -1.5000 c3        1 MOL      0.149194
     25 C11         1.2550    7.8290   -1.6550 c3        1 MOL      0.003563
     26 C12         0.9700    8.0320   -3.1230 c3        1 MOL      0.081107
     27 N3          0.8440    9.4910   -3.3660 n4        1 MOL     -0.420167
     28 H8          1.3820    3.3860   -0.3960 hn        1 MOL      0.258871
     29 H9          3.7720    5.2430   -0.5660 h1        1 MOL      0.089936
     30 H10         2.3580    6.9440    0.4540 hc        1 MOL      0.025197
     31 H11         1.0430    5.8290    0.4370 hc        1 MOL      0.025197
     32 H12         0.9740    5.7540   -1.9580 hc        1 MOL     -0.012692
     33 H13         2.6040    6.2270   -2.0960 hc        1 MOL     -0.012692
     34 H14         2.1480    8.4230   -1.4070 hc        1 MOL      0.010927
     35 H15         0.3980    8.0470   -1.0180 hc        1 MOL      0.010927
     36 H16         0.0340    7.5840   -3.4630 hx        1 MOL      0.078217
     37 H17         1.8190    7.5520   -3.6140 hx        1 MOL      0.078217
     38 H18         1.6380   10.0390   -3.0610 hn        1 MOL      0.334133
     39 H19         0.8590    9.7050   -4.3550 hn        1 MOL      0.334133
     40 H20         0.0260    9.9020   -2.9360 hn        1 MOL      0.334133
     41 N4          3.5870    3.5170    2.0970 n         1 MOL     -0.431737
     42 C13         4.5650    3.1130    3.1320 c3        1 MOL      0.353203
     43 C14         5.8830    2.4950    2.5610 c         1 MOL      0.261524
     44 O6          6.9680    2.7280    3.1190 o         1 MOL     -0.526227
     45 C15         3.9600    2.1300    4.2210 c3        1 MOL     -0.593058
     46 C16         2.6410    1.3990    3.8680 c         1 MOL      0.883575
     47 O7          2.5480    0.8580    2.7720 o         1 MOL     -0.717358
     48 O8          1.7720    1.2840    4.8170 o         1 MOL     -0.717358
     49 H21         2.9570    2.8330    1.7100 hn        1 MOL      0.198987
     50 H22         4.9390    3.9470    3.7190 h1        1 MOL      0.047523
     51 H23         3.5850    2.7660    5.0230 hc        1 MOL      0.149356
     52 H24         4.6050    1.3130    4.5240 hc        1 MOL      0.149356
     53 N5          5.8190    1.8810    1.3810 n         1 MOL      0.077127
     54 C17         6.9620    1.4040    0.6140 c3        1 MOL     -0.231135
     55 C18         7.2210    0.0020    1.0190 c         1 MOL      0.689180
     56 O9          8.4120   -0.2650    1.0860 o         1 MOL     -0.628014
     57 H25         4.9370    1.8340    0.8940 hn        1 MOL      0.029361
     58 H26         7.8320    2.0330    0.7870 h1        1 MOL      0.099968
     59 H27         6.6320    1.3160   -0.4240 h1        1 MOL      0.099968
     60 N6          6.3070   -0.8440    1.3810 n         1 MOL     -0.405538
     61 C19         6.5870   -2.2620    1.8000 c3        1 MOL      0.115796
     62 C20         6.6070   -3.2610    0.6160 c         1 MOL      0.404722
     63 O10         6.8590   -4.4310    0.8430 o         1 MOL     -0.535610
     64 C21         5.5700   -2.6740    2.8340 c3        1 MOL     -0.232244
     65 C22         4.0970   -2.5720    2.4110 c         1 MOL      0.707891
     66 O11         3.6930   -2.7490    1.2140 o         1 MOL     -0.681172
     67 O12         3.3300   -1.9790    3.2060 o         1 MOL     -0.681172
     68 H28         5.3450   -0.6270    1.1870 hn        1 MOL      0.198873
     69 H29         7.6050   -2.3380    2.1760 h1        1 MOL      0.088831
     70 H30         5.6520   -2.0840    3.7440 hc        1 MOL      0.067943
     71 H31         5.8110   -3.7170    3.0490 hc        1 MOL      0.067943
     72 N7          6.2740   -2.7940   -0.5860 n         1 MOL     -0.206141
     73 C23         6.3040   -3.5510   -1.8560 c3        1 MOL     -0.087536
     74 C24         5.0330   -4.4000   -2.0930 c         1 MOL      0.399957
     75 O13         5.0150   -5.3400   -2.9370 o         1 MOL     -0.565822
     76 H32         6.0300   -1.8180   -0.6120 hn        1 MOL      0.171665
     77 H33         7.1990   -4.1740   -1.9120 h1        1 MOL      0.091821
     78 H34         6.4910   -2.8880   -2.6850 h1        1 MOL      0.091821
     79 N8          3.9940   -4.0540   -1.3970 n         1 MOL     -0.093375
     80 C25         2.6360   -4.5240   -1.6080 c3        1 MOL     -0.077268
     81 C26         1.5890   -3.4350   -1.6540 c         1 MOL      0.601328
     82 O14         1.7340   -2.3880   -0.9700 o         1 MOL     -0.591489
     83 C27         2.2680   -5.5740   -0.4870 c3        1 MOL      0.407304
     84 C28         3.1360   -6.8730   -0.5560 c3        1 MOL     -0.494756
     85 O15         2.4780   -5.0170    0.8570 oh        1 MOL     -0.588687
     86 H35         4.2170   -3.3290   -0.7230 hn        1 MOL      0.118934
     87 H36         2.5590   -5.1150   -2.5270 h1        1 MOL      0.058887
     88 H37         1.2520   -5.9060   -0.6800 h1        1 MOL      0.004600
     89 H38         3.1400   -4.3320    0.7450 ho        1 MOL      0.367971
     90 H39         3.0500   -7.4720   -1.4680 hc        1 MOL      0.125617
     91 H40         4.1930   -6.6730   -0.5090 hc        1 MOL      0.125617
     92 H41         2.8950   -7.4640    0.3310 hc        1 MOL      0.125617
     93 N9          0.4190   -3.7220   -2.2270 n         1 MOL     -0.621918
     94 C29        -0.6850   -2.6960   -2.2350 c3        1 MOL      0.040939
     95 C30        -1.9680   -3.3460   -1.5800 c         1 MOL      0.443380
     96 O16        -2.2560   -4.5360   -1.8400 o         1 MOL     -0.546243
     97 C31        -1.0190   -2.3230   -3.6700 c3        1 MOL      0.440457
     98 C32         0.1860   -1.6680   -4.4800 c3        1 MOL      0.129509
     99 C33        -2.3750   -1.5240   -3.7200 c3        1 MOL     -0.477931
    100 C34        -0.1230   -1.5510   -6.0070 c3        1 MOL     -0.353652
    101 H42         0.2600   -4.6200   -2.6780 hn        1 MOL      0.329044
    102 H43        -0.3920   -1.7580   -1.7730 h1        1 MOL      0.072831
    103 H44        -1.1720   -3.2370   -4.2350 hc        1 MOL     -0.080873
    104 H45         1.0480   -2.3180   -4.3430 hc        1 MOL     -0.019047
    105 H46         0.4260   -0.6820   -4.0760 hc        1 MOL     -0.019047
    106 H47        -3.1990   -2.0700   -3.2660 hc        1 MOL      0.074272
    107 H48        -2.2280   -0.5680   -3.2070 hc        1 MOL      0.074272
    108 H49        -2.5040   -1.2500   -4.7640 hc        1 MOL      0.074272
    109 H50         0.7050   -1.5940   -6.7040 hc        1 MOL      0.082051
    110 H51        -0.8950   -2.2450   -6.3400 hc        1 MOL      0.082051
    111 H52        -0.7180   -0.6360   -6.0600 hc        1 MOL      0.082051
    112 N10        -2.6450   -2.5010   -0.8100 n         1 MOL     -0.033761
    113 C35        -3.9010   -2.8120   -0.1160 c3        1 MOL     -0.091151
    114 C36        -5.1440   -2.1780   -0.8070 c         1 MOL      0.357949
    115 O17        -5.0360   -1.2050   -1.5090 o         1 MOL     -0.326502
    116 C37        -3.8910   -2.3290    1.3660 c3        1 MOL      0.303420
    117 C38        -2.8040   -3.0220    2.1860 c3        1 MOL     -0.324175
    118 O18        -3.5410   -0.9600    1.3870 oh        1 MOL     -0.571152
    119 H53        -2.2870   -1.5670   -0.6480 hn        1 MOL      0.044850
    120 H54        -4.0180   -3.8940   -0.0630 h1        1 MOL      0.054340
    121 H55        -4.8700   -2.4460    1.8110 h1        1 MOL      0.026229
    122 H56        -2.6410   -0.9770    1.0630 ho        1 MOL      0.372681
    123 H57        -3.2330   -3.9720    2.5240 hc        1 MOL      0.081774
    124 H58        -1.8890   -3.3200    1.6710 hc        1 MOL      0.081774
    125 H59        -2.5640   -2.3640    3.0150 hc        1 MOL      0.081774
    126 N11        -6.2990   -2.7440   -0.5120 n         1 MOL     -0.325717
    127 C39        -7.6250   -2.1670   -0.8160 c3        1 MOL     -0.159093
    128 C40        -7.7030   -0.6540   -0.3830 c         1 MOL      0.339042
    129 O19        -8.2540    0.1440   -1.1110 o         1 MOL     -0.433868
    130 C41        -8.7820   -2.9410   -0.1720 c3        1 MOL      0.258825
    131 C42        -8.8700   -4.3460   -0.7470 c3        1 MOL     -0.430533
    132 O20        -8.6790   -3.1520    1.2190 oh        1 MOL     -0.621932
    133 H60        -6.2910   -3.5510    0.0910 hn        1 MOL      0.292080
    134 H61        -7.7980   -2.2700   -1.8960 h1        1 MOL      0.162807
    135 H62        -9.6870   -2.3280   -0.2640 h1        1 MOL      0.061769
    136 H63        -9.5690   -3.3300    1.5460 ho        1 MOL      0.409622
    137 H64        -9.7570   -4.7870   -0.2910 hc        1 MOL      0.126602
    138 H65        -9.0650   -4.2410   -1.8140 hc        1 MOL      0.126602
    139 H66        -7.9860   -4.9420   -0.5160 hc        1 MOL      0.126602
    140 N12        -7.1630   -0.3200    0.8690 n         1 MOL     -0.072959
    141 C43        -7.0570    1.0370    1.3390 c3        1 MOL     -0.155946
    142 C44        -6.0870    1.9140    0.4100 c         1 MOL      0.367406
    143 O21        -6.5070    3.0340    0.1040 o         1 MOL     -0.504589
    144 C45        -6.5670    1.0930    2.7830 c3        1 MOL     -0.071322
    145 C46        -7.1880    2.1600    3.6970 c3        1 MOL      0.146572
    146 C47        -6.7300    2.1150    5.1840 c3        1 MOL     -0.157624
    147 C48        -7.3910    0.9760    6.0320 c3        1 MOL      0.085077
    148 N13        -7.1900    1.2850    7.4750 n4        1 MOL     -0.256783
    149 H67        -7.2110   -1.0780    1.5290 hn        1 MOL      0.148166
    150 H68        -8.0520    1.4950    1.3390 h1        1 MOL      0.094406
    151 H69        -5.4870    1.2020    2.7770 hc        1 MOL      0.040970
    152 H70        -6.7350    0.1340    3.2710 hc        1 MOL      0.040970
    153 H71        -8.2630    1.9740    3.6740 hc        1 MOL     -0.000456
    154 H72        -7.0790    3.1980    3.3690 hc        1 MOL     -0.000456
    155 H73        -7.0840    3.0630    5.5740 hc        1 MOL      0.066611
    156 H74        -5.6450    2.0290    5.2720 hc        1 MOL      0.066611
    157 H75        -7.0010    0.0150    5.7010 hx        1 MOL      0.061966
    158 H76        -8.4690    0.9600    5.8820 hx        1 MOL      0.061966
    159 H77        -7.6720    2.1490    7.7070 hn        1 MOL      0.281354
    160 H78        -7.5520    0.6060    8.1260 hn        1 MOL      0.281354
    161 H79        -6.2210    1.4630    7.7160 hn        1 MOL      0.281354
    162 N14        -4.9220    1.4170   -0.0480 n         1 MOL     -0.024595
    163 C49        -4.0080    2.1960   -0.9380 c3        1 MOL     -0.289800
    164 C50        -4.5800    2.4200   -2.3490 c         1 MOL      0.533311
    165 O22        -4.3380    3.4380   -2.9700 o         1 MOL     -0.549132
    166 C51        -2.6840    1.3900   -1.0840 c3        1 MOL      0.215243
    167 C52        -1.8440    1.5920    0.1820 c3        1 MOL     -0.257028
    168 C53        -0.6710    0.6320    0.3950 c         1 MOL      0.821056
    169 O23        -0.7410   -0.6260    0.2840 o         1 MOL     -0.710030
    170 O24         0.4140    1.0570    0.7810 o         1 MOL     -0.710030
    171 H80        -4.6250    0.5110    0.2790 hn        1 MOL      0.131103
    172 H81        -3.8240    3.1620   -0.4500 h1        1 MOL      0.142308
    173 H82        -2.0890    1.6330   -1.9610 hc        1 MOL     -0.015595
    174 H83        -2.9470    0.3390   -1.1820 hc        1 MOL     -0.015595
    175 H84        -2.4540    1.3690    1.0610 hc        1 MOL      0.046395
    176 H85        -1.4070    2.5780    0.2610 hc        1 MOL      0.046395
    177 N15        -5.4280    1.4580   -2.8250 n         1 MOL     -0.151718
    178 C54        -6.1860    1.6440   -4.0800 c3        1 MOL     -0.262207
    179 H86        -5.6380    1.1890   -4.9050 h1        1 MOL      0.099365
    180 H87        -7.1630    1.1690   -3.9890 h1        1 MOL      0.099365
    181 H88        -6.3160    2.7090   -4.2730 h1        1 MOL      0.099365
    182 H89        -5.6360    0.5930   -2.3420 hn        1 MOL      0.177872
    183 Ca1         1.7470   -1.0460    1.2210 Ca        1 MOL      1.690486
    184 O25         0.2700   -0.7770    3.4970 oh        1 MOL     -0.833029
    185 H90         0.5600   -0.0330    4.0230 ho        1 MOL      0.383916
    186 H91         0.1880   -1.4960    4.1230 ho        1 MOL      0.383916
    187 O26         0.6450   -3.4080    1.9630 oh        1 MOL     -0.833029
    188 H92         1.1730   -4.2000    1.9580 ho        1 MOL      0.383916
    189 H93        -0.1340   -3.6320    2.4780 ho        1 MOL      0.383916
@<TRIPOS>BOND
     1    1    2 1   
     2    1    4 1   
     3    1    5 1   
     4    1    6 1   
     5    2    3 2   
     6    2    7 1   
     7    7    8 1   
     8    7   15 1   
     9    8    9 1   
    10    8   11 1   
    11    8   16 1   
    12    9   10 2   
    13    9   19 1   
    14   11   12 1   
    15   11   17 1   
    16   11   18 1   
    17   12   13 1   
    18   12   14 1   
    19   19   20 1   
    20   19   28 1   
    21   20   21 1   
    22   20   23 1   
    23   20   29 1   
    24   21   22 2   
    25   21   41 1   
    26   23   24 1   
    27   23   30 1   
    28   23   31 1   
    29   24   25 1   
    30   24   32 1   
    31   24   33 1   
    32   25   26 1   
    33   25   34 1   
    34   25   35 1   
    35   26   27 1   
    36   26   36 1   
    37   26   37 1   
    38   27   38 1   
    39   27   39 1   
    40   27   40 1   
    41   41   42 1   
    42   41   49 1   
    43   42   43 1   
    44   42   45 1   
    45   42   50 1   
    46   43   44 2   
    47   43   53 1   
    48   45   46 1   
    49   45   51 1   
    50   45   52 1   
    51   46   47 1   
    52   46   48 1   
    53   53   54 1   
    54   53   57 1   
    55   54   55 1   
    56   54   58 1   
    57   54   59 1   
    58   55   56 2   
    59   55   60 1   
    60   60   61 1   
    61   60   68 1   
    62   61   62 1   
    63   61   64 1   
    64   61   69 1   
    65   62   63 2   
    66   62   72 1   
    67   64   65 1   
    68   64   70 1   
    69   64   71 1   
    70   65   66 1   
    71   65   67 1   
    72   72   73 1   
    73   72   76 1   
    74   73   74 1   
    75   73   77 1   
    76   73   78 1   
    77   74   75 2   
    78   74   79 1   
    79   79   80 1   
    80   79   86 1   
    81   80   81 1   
    82   80   83 1   
    83   80   87 1   
    84   81   82 2   
    85   81   93 1   
    86   83   84 1   
    87   83   85 1   
    88   83   88 1   
    89   84   90 1   
    90   84   91 1   
    91   84   92 1   
    92   85   89 1   
    93   93   94 1   
    94   93  101 1   
    95   94   95 1   
    96   94   97 1   
    97   94  102 1   
    98   95   96 2   
    99   95  112 1   
   100   97   98 1   
   101   97   99 1   
   102   97  103 1   
   103   98  100 1   
   104   98  104 1   
   105   98  105 1   
   106   99  106 1   
   107   99  107 1   
   108   99  108 1   
   109  100  109 1   
   110  100  110 1   
   111  100  111 1   
   112  112  113 1   
   113  112  119 1   
   114  113  114 1   
   115  113  116 1   
   116  113  120 1   
   117  114  115 2   
   118  114  126 1   
   119  116  117 1   
   120  116  118 1   
   121  116  121 1   
   122  117  123 1   
   123  117  124 1   
   124  117  125 1   
   125  118  122 1   
   126  126  127 1   
   127  126  133 1   
   128  127  128 1   
   129  127  130 1   
   130  127  134 1   
   131  128  129 2   
   132  128  140 1   
   133  130  131 1   
   134  130  132 1   
   135  130  135 1   
   136  131  137 1   
   137  131  138 1   
   138  131  139 1   
   139  132  136 1   
   140  140  141 1   
   141  140  149 1   
   142  141  142 1   
   143  141  144 1   
   144  141  150 1   
   145  142  143 2   
   146  142  162 1   
   147  144  145 1   
   148  144  151 1   
   149  144  152 1   
   150  145  146 1   
   151  145  153 1   
   152  145  154 1   
   153  146  147 1   
   154  146  155 1   
   155  146  156 1   
   156  147  148 1   
   157  147  157 1   
   158  147  158 1   
   159  148  159 1   
   160  148  160 1   
   161  148  161 1   
   162  162  163 1   
   163  162  171 1   
   164  163  164 1   
   165  163  166 1   
   166  163  172 1   
   167  164  165 2   
   168  164  177 1   
   169  166  167 1   
   170  166  173 1   
   171  166  174 1   
   172  167  168 1   
   173  167  175 1   
   174  167  176 1   
   175  168  169 1   
   176  168  170 1   
   177  177  178 1   
   178  177  182 1   
   179  178  179 1   
   180  178  180 1   
   181  178  181 1   
   182  184  185 1   
   183  184  186 1   
   184  187  188 1   
   185  187  189 1   
@<TRIPOS>SUBSTRUCTURE
     1 MOL         1 TEMP              0 ****  ****    0 ROOT
