@<TRIPOS>MOLECULE
MOL
  189   185     1     0     0
SMALL
resp


@<TRIPOS>ATOM
      1 C1          0.6280    2.7590    5.2860 c3        1 MOL     -0.387123
      2 C2         -0.0410    2.5740    3.8970 c         1 MOL      0.697936
      3 O1          0.6200    2.7980    2.8900 o         1 MOL     -0.677579
      4 H1         -0.1360    2.9790    6.0310 hc        1 MOL      0.104833
      5 H2          1.1510    1.8440    5.5620 hc        1 MOL      0.104833
      6 H3          1.3390    3.5850    5.2400 hc        1 MOL      0.104833
      7 N1         -1.2970    2.0910    3.7490 n         1 MOL     -0.575716
      8 C3         -1.9930    1.7120    2.5270 c3        1 MOL      0.172438
      9 C4         -2.6180    2.9600    1.8440 c         1 MOL      0.300657
     10 O2         -3.8460    3.2110    1.9010 o         1 MOL     -0.479435
     11 C5         -3.1160    0.6470    2.8730 c3        1 MOL     -0.076579
     12 C6         -3.7660    0.1400    1.5320 c         1 MOL      0.604044
     13 O3         -3.2220    0.2720    0.4320 o         1 MOL     -0.659374
     14 O4         -4.7800   -0.5620    1.7220 o         1 MOL     -0.659374
     15 H4         -1.6940    1.8400    4.6370 hn        1 MOL      0.295397
     16 H5         -1.3030    1.2090    1.8500 h1        1 MOL      0.050491
     17 H6         -3.9070    1.1110    3.4580 hc        1 MOL      0.025292
     18 H7         -2.6810   -0.1620    3.4460 hc        1 MOL      0.025292
     19 N2         -1.8400    3.7900    1.1820 n         1 MOL     -0.128428
     20 C7         -2.1390    5.1610    0.7160 c3        1 MOL      0.031437
     21 C8         -3.2310    5.1630   -0.3860 c         1 MOL      0.521132
     22 O5         -3.7610    6.1990   -0.6340 o         1 MOL     -0.556476
     23 C9         -0.9070    5.8770    0.2540 c3        1 MOL     -0.202094
     24 C10         0.2530    5.9870    1.3240 c3        1 MOL     -0.056394
     25 C11        -0.2100    6.8870    2.4650 c3        1 MOL     -0.162252
     26 C12         0.8480    7.8230    3.1160 c3        1 MOL     -0.049252
     27 N3          1.9530    7.0950    3.8700 n4        1 MOL     -0.305515
     28 H8         -0.9110    3.4140    1.2260 hn        1 MOL      0.219343
     29 H9         -2.5580    5.6770    1.5730 h1        1 MOL      0.048139
     30 H10        -1.1720    6.9080   -0.0010 hc        1 MOL      0.081618
     31 H11        -0.4460    5.4240   -0.6120 hc        1 MOL      0.081618
     32 H12         1.2400    6.2480    0.9620 hc        1 MOL      0.059194
     33 H13         0.6420    5.0300    1.6880 hc        1 MOL      0.059194
     34 H14        -0.6910    6.1720    3.1370 hc        1 MOL      0.104245
     35 H15        -0.9500    7.5470    2.0130 hc        1 MOL      0.104245
     36 H16         0.2570    8.5130    3.7190 hx        1 MOL      0.106801
     37 H17         1.3050    8.2710    2.2340 hx        1 MOL      0.106801
     38 H18         2.2660    6.3440    3.2670 hn        1 MOL      0.320463
     39 H19         2.7670    7.6790    3.9610 hn        1 MOL      0.320463
     40 H20         1.6450    6.6300    4.7110 hn        1 MOL      0.320463
     41 N4         -3.5180    4.0150   -1.0950 n         1 MOL     -0.326717
     42 C13        -4.5060    3.9780   -2.1880 c3        1 MOL      0.264268
     43 C14        -5.6620    3.0230   -1.8160 c         1 MOL      0.287944
     44 O6         -6.4790    2.8150   -2.6770 o         1 MOL     -0.514356
     45 C15        -3.7990    3.5700   -3.5370 c3        1 MOL     -0.398070
     46 C16        -3.0320    2.2630   -3.4500 c         1 MOL      0.943638
     47 O7         -3.2040    1.4510   -2.5060 o         1 MOL     -0.760229
     48 O8         -2.1800    1.9850   -4.3370 o         1 MOL     -0.760229
     49 H21        -2.9470    3.1940   -0.9500 hn        1 MOL      0.151654
     50 H22        -4.9730    4.9560   -2.2800 h1        1 MOL      0.049678
     51 H23        -3.1360    4.4300   -3.6530 hc        1 MOL      0.080503
     52 H24        -4.5620    3.5150   -4.3090 hc        1 MOL      0.080503
     53 N5         -5.6960    2.4840   -0.6170 n         1 MOL      0.019753
     54 C17        -6.9610    2.0810   -0.0130 c3        1 MOL     -0.371733
     55 C18        -7.3390    0.7120   -0.4760 c         1 MOL      0.615847
     56 O9         -8.4850    0.3250   -0.2720 o         1 MOL     -0.614038
     57 H25        -4.9480    2.7620   -0.0000 hn        1 MOL      0.069162
     58 H26        -7.7210    2.7930   -0.3480 h1        1 MOL      0.153210
     59 H27        -6.7690    2.0740    1.0660 h1        1 MOL      0.153210
     60 N6         -6.4910   -0.1010   -1.0790 n         1 MOL     -0.255216
     61 C19        -6.9140   -1.4100   -1.7350 c3        1 MOL     -0.044675
     62 C20        -6.9140   -2.6170   -0.8630 c         1 MOL      0.486459
     63 O10        -7.3830   -3.6300   -1.2610 o         1 MOL     -0.536158
     64 C21        -6.0900   -1.6920   -3.0130 c3        1 MOL     -0.302923
     65 C22        -4.5380   -1.8150   -2.7030 c         1 MOL      0.778442
     66 O11        -4.1510   -2.2430   -1.6070 o         1 MOL     -0.696543
     67 O12        -3.8260   -1.2550   -3.4760 o         1 MOL     -0.696543
     68 H28        -5.5210    0.1670   -1.0720 hn        1 MOL      0.233704
     69 H29        -7.9390   -1.2720   -2.0560 h1        1 MOL      0.125554
     70 H30        -6.2860   -0.8210   -3.6420 hc        1 MOL      0.091997
     71 H31        -6.3970   -2.6110   -3.5010 hc        1 MOL      0.091997
     72 N7         -6.5640   -2.4660    0.4500 n         1 MOL     -0.293348
     73 C23        -6.5910   -3.4040    1.5520 c3        1 MOL     -0.053757
     74 C24        -5.2980   -4.2180    1.7300 c         1 MOL      0.491604
     75 O13        -5.2500   -5.1160    2.5430 o         1 MOL     -0.580247
     76 H32        -6.1800   -1.5580    0.6320 hn        1 MOL      0.236137
     77 H33        -7.3180   -4.1900    1.3570 h1        1 MOL      0.075480
     78 H34        -6.9820   -2.9460    2.4550 h1        1 MOL      0.075480
     79 N8         -4.2550   -3.8700    0.9590 n         1 MOL     -0.180965
     80 C25        -2.9160   -4.5120    1.0160 c3        1 MOL     -0.168579
     81 C26        -1.7550   -3.4920    1.1180 c         1 MOL      0.643915
     82 O14        -1.6840   -2.4210    0.4360 o         1 MOL     -0.598421
     83 C27        -2.7470   -5.5330   -0.1770 c3        1 MOL      0.479805
     84 C28        -3.4380   -6.8300    0.0030 c3        1 MOL     -0.454322
     85 O15        -3.0530   -4.9340   -1.4560 oh        1 MOL     -0.630410
     86 H35        -4.4020   -3.0820    0.3570 hn        1 MOL      0.166072
     87 H36        -2.7810   -5.0790    1.9370 h1        1 MOL      0.082692
     88 H37        -1.6820   -5.7840   -0.1630 h1        1 MOL     -0.058292
     89 H38        -3.2480   -4.0020   -1.3710 ho        1 MOL      0.366130
     90 H39        -3.2920   -7.3190    0.9600 hc        1 MOL      0.122082
     91 H40        -4.4900   -6.7540   -0.2700 hc        1 MOL      0.122082
     92 H41        -3.1510   -7.5340   -0.7830 hc        1 MOL      0.122082
     93 N9         -0.7520   -3.7930    1.9080 n         1 MOL     -0.664351
     94 C29         0.5640   -3.0380    1.9420 c3        1 MOL      0.134958
     95 C30         1.6800   -3.7960    1.2050 c         1 MOL      0.533974
     96 O16         2.1080   -4.8870    1.5700 o         1 MOL     -0.555161
     97 C31         0.9490   -2.6420    3.3610 c3        1 MOL     -0.035444
     98 C32        -0.3110   -2.0390    4.1620 c3        1 MOL      0.168329
     99 C33         2.2080   -1.7830    3.3310 c3        1 MOL     -0.276195
    100 C34        -0.0860   -1.7890    5.6550 c3        1 MOL     -0.170204
    101 H42        -0.9260   -4.4990    2.6130 hn        1 MOL      0.345493
    102 H43         0.5490   -2.1020    1.3900 h1        1 MOL      0.041536
    103 H44         1.2680   -3.5820    3.8000 hc        1 MOL      0.015895
    104 H45        -1.1020   -2.7830    4.1080 hc        1 MOL      0.015293
    105 H46        -0.5610   -1.0800    3.7110 hc        1 MOL      0.015293
    106 H47         1.9840   -0.7440    3.1290 hc        1 MOL      0.059898
    107 H48         2.6500   -1.6170    4.3050 hc        1 MOL      0.059898
    108 H49         3.0580   -2.1810    2.7870 hc        1 MOL      0.059898
    109 H50        -0.8310   -1.0910    6.0230 hc        1 MOL      0.033155
    110 H51        -0.3490   -2.6750    6.2350 hc        1 MOL      0.033155
    111 H52         0.8400   -1.2910    5.9530 hc        1 MOL      0.033155
    112 N10         2.2960   -3.0170    0.3180 n         1 MOL     -0.271544
    113 C35         3.4910   -3.3190   -0.4800 c3        1 MOL     -0.009706
    114 C36         4.7890   -2.7150    0.0290 c         1 MOL      0.284839
    115 O17         4.7540   -1.8670    0.8910 o         1 MOL     -0.195581
    116 C37         3.3760   -2.9270   -1.9630 c3        1 MOL      0.259620
    117 C38         2.3990   -3.5210   -2.9290 c3        1 MOL     -0.452189
    118 O18         3.1210   -1.5560   -1.9760 oh        1 MOL     -0.620086
    119 H53         1.6980   -2.2550    0.0360 hn        1 MOL      0.277819
    120 H54         3.6460   -4.3960   -0.5620 h1        1 MOL      0.066859
    121 H55         4.3550   -2.9820   -2.4460 h1        1 MOL      0.012357
    122 H56         2.2920   -1.4010   -1.5180 ho        1 MOL      0.424567
    123 H57         1.4060   -3.3220   -2.5430 hc        1 MOL      0.122761
    124 H58         2.4770   -3.2140   -3.9760 hc        1 MOL      0.122761
    125 H59         2.5250   -4.6050   -2.9690 hc        1 MOL      0.122761
    126 N11         5.9090   -3.2380   -0.3990 n         1 MOL     -0.217047
    127 C39         7.3090   -2.9330    0.0550 c3        1 MOL     -0.349695
    128 C40         7.5370   -1.4060   -0.1230 c         1 MOL      0.538532
    129 O19         8.2650   -0.8460    0.6530 o         1 MOL     -0.499486
    130 C41         8.3580   -3.8030   -0.6510 c3        1 MOL      0.548858
    131 C42         9.6800   -3.8550    0.1110 c3        1 MOL     -0.431504
    132 O20         7.9640   -5.1740   -0.7110 oh        1 MOL     -0.599353
    133 H60         5.8120   -3.9750   -1.0830 hn        1 MOL      0.182933
    134 H61         7.3420   -3.1430    1.1200 h1        1 MOL      0.182565
    135 H62         8.5100   -3.5290   -1.6940 h1        1 MOL     -0.054749
    136 H63         7.2710   -5.2180   -1.3750 ho        1 MOL      0.371222
    137 H64         9.9110   -2.8340    0.3780 hc        1 MOL      0.125994
    138 H65         9.6040   -4.5170    0.9720 hc        1 MOL      0.125994
    139 H66        10.4390   -4.2970   -0.5280 hc        1 MOL      0.125994
    140 N12         7.0320   -0.7320   -1.1430 n         1 MOL     -0.436203
    141 C43         7.1810    0.7310   -1.2600 c3        1 MOL      0.058650
    142 C44         6.2260    1.4390   -0.2740 c         1 MOL      0.345846
    143 O21         6.5520    2.4790    0.2780 o         1 MOL     -0.506167
    144 C45         6.9820    1.2440   -2.7300 c3        1 MOL     -0.036344
    145 C46         7.8070    2.4160   -3.1170 c3        1 MOL      0.099730
    146 C47         7.3570    2.8400   -4.5520 c3        1 MOL     -0.166595
    147 C48         6.4900    4.1510   -4.5080 c3        1 MOL      0.025135
    148 N13         6.2350    4.6270   -5.8880 n4        1 MOL     -0.354970
    149 H67         6.5450   -1.2260   -1.8790 hn        1 MOL      0.250075
    150 H68         8.1690    1.0740   -0.9700 h1        1 MOL      0.072458
    151 H69         5.9440    1.5630   -2.8050 hc        1 MOL      0.018015
    152 H70         7.2290    0.4120   -3.3890 hc        1 MOL      0.018015
    153 H71         8.8730    2.1700   -3.2010 hc        1 MOL      0.005349
    154 H72         7.6920    3.2440   -2.4230 hc        1 MOL      0.005349
    155 H73         6.8250    1.9920   -4.9780 hc        1 MOL      0.082714
    156 H74         8.2150    2.9020   -5.2280 hc        1 MOL      0.082714
    157 H75         7.0650    4.9740   -4.0840 hx        1 MOL      0.101502
    158 H76         5.5220    4.0510   -4.0100 hx        1 MOL      0.101502
    159 H77         5.6900    4.0870   -6.5320 hn        1 MOL      0.306489
    160 H78         5.6350    5.4380   -5.8840 hn        1 MOL      0.306489
    161 H79         7.1130    4.9050   -6.3170 hn        1 MOL      0.306489
    162 N14         5.0330    0.9200   -0.1560 n         1 MOL     -0.035589
    163 C49         4.1130    1.4300    0.8100 c3        1 MOL     -0.164524
    164 C50         4.5790    1.3410    2.2830 c         1 MOL      0.436495
    165 O22         4.4900    2.3160    3.0300 o         1 MOL     -0.559142
    166 C51         2.7290    0.7930    0.6570 c3        1 MOL     -0.170199
    167 C52         1.9970    1.2540   -0.5630 c3        1 MOL     -0.219288
    168 C53         0.7230    0.4850   -0.6560 c         1 MOL      0.774281
    169 O23        -0.3660    1.1180   -0.8230 o         1 MOL     -0.797313
    170 O24         0.7530   -0.7610   -0.8360 o         1 MOL     -0.797313
    171 H80         4.7480    0.1730   -0.7820 hn        1 MOL      0.172684
    172 H81         4.0040    2.4960    0.5940 h1        1 MOL      0.066309
    173 H82         2.0970    1.0700    1.5130 hc        1 MOL      0.177678
    174 H83         2.8560   -0.2880    0.6260 hc        1 MOL      0.177678
    175 H84         2.5610    1.1080   -1.4790 hc        1 MOL      0.054452
    176 H85         1.7800    2.3250   -0.5400 hc        1 MOL      0.054452
    177 N15         5.2190    0.2000    2.6040 n         1 MOL      0.027772
    178 C54         6.0010    0.0030    3.8220 c3        1 MOL     -0.360113
    179 H86         5.4090    0.3060    4.6850 h1        1 MOL      0.120186
    180 H87         6.2680   -1.0500    3.9160 h1        1 MOL      0.120186
    181 H88         6.9080    0.6060    3.7740 h1        1 MOL      0.120186
    182 H89         5.0480   -0.6000    2.0120 hn        1 MOL      0.007292
    183 Ca1        -1.9990   -0.6530   -1.5920 Ca        1 MOL      1.772108
    184 O25        -1.2350   -3.0650   -2.8990 oh        1 MOL     -0.804162
    185 H90        -1.4290   -3.9710   -2.6530 ho        1 MOL      0.384702
    186 H91        -1.1550   -3.0890   -3.8490 ho        1 MOL      0.384702
    187 O26        -0.9720   -0.3760   -4.0620 oh        1 MOL     -0.804162
    188 H92        -0.2600   -0.2280   -4.6890 ho        1 MOL      0.384702
    189 H93        -1.5400    0.3820   -4.1660 ho        1 MOL      0.384702
@<TRIPOS>BOND
     1    1    2 1   
     2    1    4 1   
     3    1    5 1   
     4    1    6 1   
     5    2    3 2   
     6    2    7 1   
     7    7    8 1   
     8    7   15 1   
     9    8    9 1   
    10    8   11 1   
    11    8   16 1   
    12    9   10 2   
    13    9   19 1   
    14   11   12 1   
    15   11   17 1   
    16   11   18 1   
    17   12   13 1   
    18   12   14 1   
    19   19   20 1   
    20   19   28 1   
    21   20   21 1   
    22   20   23 1   
    23   20   29 1   
    24   21   22 2   
    25   21   41 1   
    26   23   24 1   
    27   23   30 1   
    28   23   31 1   
    29   24   25 1   
    30   24   32 1   
    31   24   33 1   
    32   25   26 1   
    33   25   34 1   
    34   25   35 1   
    35   26   27 1   
    36   26   36 1   
    37   26   37 1   
    38   27   38 1   
    39   27   39 1   
    40   27   40 1   
    41   41   42 1   
    42   41   49 1   
    43   42   43 1   
    44   42   45 1   
    45   42   50 1   
    46   43   44 2   
    47   43   53 1   
    48   45   46 1   
    49   45   51 1   
    50   45   52 1   
    51   46   47 1   
    52   46   48 1   
    53   53   54 1   
    54   53   57 1   
    55   54   55 1   
    56   54   58 1   
    57   54   59 1   
    58   55   56 2   
    59   55   60 1   
    60   60   61 1   
    61   60   68 1   
    62   61   62 1   
    63   61   64 1   
    64   61   69 1   
    65   62   63 2   
    66   62   72 1   
    67   64   65 1   
    68   64   70 1   
    69   64   71 1   
    70   65   66 1   
    71   65   67 1   
    72   72   73 1   
    73   72   76 1   
    74   73   74 1   
    75   73   77 1   
    76   73   78 1   
    77   74   75 2   
    78   74   79 1   
    79   79   80 1   
    80   79   86 1   
    81   80   81 1   
    82   80   83 1   
    83   80   87 1   
    84   81   82 2   
    85   81   93 1   
    86   83   84 1   
    87   83   85 1   
    88   83   88 1   
    89   84   90 1   
    90   84   91 1   
    91   84   92 1   
    92   85   89 1   
    93   93   94 1   
    94   93  101 1   
    95   94   95 1   
    96   94   97 1   
    97   94  102 1   
    98   95   96 2   
    99   95  112 1   
   100   97   98 1   
   101   97   99 1   
   102   97  103 1   
   103   98  100 1   
   104   98  104 1   
   105   98  105 1   
   106   99  106 1   
   107   99  107 1   
   108   99  108 1   
   109  100  109 1   
   110  100  110 1   
   111  100  111 1   
   112  112  113 1   
   113  112  119 1   
   114  113  114 1   
   115  113  116 1   
   116  113  120 1   
   117  114  115 2   
   118  114  126 1   
   119  116  117 1   
   120  116  118 1   
   121  116  121 1   
   122  117  123 1   
   123  117  124 1   
   124  117  125 1   
   125  118  122 1   
   126  126  127 1   
   127  126  133 1   
   128  127  128 1   
   129  127  130 1   
   130  127  134 1   
   131  128  129 2   
   132  128  140 1   
   133  130  131 1   
   134  130  132 1   
   135  130  135 1   
   136  131  137 1   
   137  131  138 1   
   138  131  139 1   
   139  132  136 1   
   140  140  141 1   
   141  140  149 1   
   142  141  142 1   
   143  141  144 1   
   144  141  150 1   
   145  142  143 2   
   146  142  162 1   
   147  144  145 1   
   148  144  151 1   
   149  144  152 1   
   150  145  146 1   
   151  145  153 1   
   152  145  154 1   
   153  146  147 1   
   154  146  155 1   
   155  146  156 1   
   156  147  148 1   
   157  147  157 1   
   158  147  158 1   
   159  148  159 1   
   160  148  160 1   
   161  148  161 1   
   162  162  163 1   
   163  162  171 1   
   164  163  164 1   
   165  163  166 1   
   166  163  172 1   
   167  164  165 2   
   168  164  177 1   
   169  166  167 1   
   170  166  173 1   
   171  166  174 1   
   172  167  168 1   
   173  167  175 1   
   174  167  176 1   
   175  168  169 1   
   176  168  170 1   
   177  177  178 1   
   178  177  182 1   
   179  178  179 1   
   180  178  180 1   
   181  178  181 1   
   182  184  185 1   
   183  184  186 1   
   184  187  188 1   
   185  187  189 1   
@<TRIPOS>SUBSTRUCTURE
     1 MOL         1 TEMP              0 ****  ****    0 ROOT
