@<TRIPOS>MOLECULE
MOL
  189   185     1     0     0
SMALL
resp


@<TRIPOS>ATOM
      1 C1          0.2650    1.2690    5.9430 c3        1 MOL     -0.262190
      2 C2         -0.3190    1.4880    4.5480 c         1 MOL      0.692739
      3 O1          0.1310    2.3640    3.8200 o         1 MOL     -0.578734
      4 H1          1.0240    2.0250    6.1410 hc        1 MOL      0.066477
      5 H2         -0.5290    1.3490    6.6850 hc        1 MOL      0.066477
      6 H3          0.7170    0.2790    5.9980 hc        1 MOL      0.066477
      7 N1         -1.4680    0.8260    4.2840 n         1 MOL     -0.508581
      8 C3         -2.1540    0.8620    2.9780 c3        1 MOL      0.098026
      9 C4         -2.8800    2.1460    2.6550 c         1 MOL      0.419745
     10 O2         -4.0240    2.3500    3.0730 o         1 MOL     -0.534602
     11 C5         -3.0450   -0.4400    2.7630 c3        1 MOL     -0.397753
     12 C6         -3.7770   -0.3640    1.4370 c         1 MOL      0.838244
     13 O3         -4.7160   -1.2170    1.2640 o         1 MOL     -0.695806
     14 O4         -3.2230    0.3410    0.5460 o         1 MOL     -0.695806
     15 H4         -1.8680    0.2100    4.9700 hn        1 MOL      0.302360
     16 H5         -1.3520    0.8130    2.2330 h1        1 MOL      0.026430
     17 H6         -3.8090   -0.5100    3.5510 hc        1 MOL      0.112523
     18 H7         -2.4140   -1.3330    2.7830 hc        1 MOL      0.112523
     19 N2         -2.4010    3.0030    1.7920 n         1 MOL     -0.127322
     20 C7         -2.8750    4.3640    1.4750 c3        1 MOL     -0.123298
     21 C8         -4.0370    4.3230    0.4940 c         1 MOL      0.399495
     22 O5         -4.9820    5.1340    0.7580 o         1 MOL     -0.582868
     23 C9         -1.7170    5.2790    0.9700 c3        1 MOL      0.032049
     24 C10        -2.1800    6.6760    0.7820 c3        1 MOL     -0.091254
     25 C11        -1.0390    7.5640    0.2450 c3        1 MOL     -0.002047
     26 C12        -1.2510    9.0840    0.1390 c3        1 MOL      0.029268
     27 N3         -2.2040    9.5210   -0.9130 n4        1 MOL     -0.417656
     28 H8         -1.5140    2.7470    1.3950 hn        1 MOL      0.186740
     29 H9         -3.2740    4.8320    2.3780 h1        1 MOL      0.121057
     30 H10        -1.2520    5.0020    0.0160 hc        1 MOL      0.048624
     31 H11        -0.9100    5.2110    1.7020 hc        1 MOL      0.048624
     32 H12        -2.4140    7.1530    1.7260 hc        1 MOL      0.042818
     33 H13        -2.9760    6.8760    0.0570 hc        1 MOL      0.042818
     34 H14        -0.5640    7.1760   -0.6580 hc        1 MOL      0.029480
     35 H15        -0.3080    7.4360    1.0330 hc        1 MOL      0.029480
     36 H16        -0.2870    9.5940    0.0970 hx        1 MOL      0.076802
     37 H17        -1.6950    9.2530    1.1270 hx        1 MOL      0.076802
     38 H18        -3.1350    9.3970   -0.5400 hn        1 MOL      0.351901
     39 H19        -2.0420   10.5010   -1.1000 hn        1 MOL      0.351901
     40 H20        -2.2240    8.8820   -1.7030 hn        1 MOL      0.351901
     41 N4         -4.1080    3.4170   -0.4680 n         1 MOL     -0.071615
     42 C13        -5.1910    3.3340   -1.4070 c3        1 MOL     -0.170953
     43 C14        -6.4480    2.6670   -0.8120 c         1 MOL      0.475613
     44 O6         -7.5210    2.7920   -1.3620 o         1 MOL     -0.540101
     45 C15        -4.7570    2.4500   -2.6140 c3        1 MOL     -0.175313
     46 C16        -3.2520    2.6780   -2.9000 c         1 MOL      0.668189
     47 O7         -2.4200    2.0510   -2.1820 o         1 MOL     -0.669295
     48 O8         -2.8960    3.5210   -3.8130 o         1 MOL     -0.669295
     49 H21        -3.3230    2.7810   -0.5190 hn        1 MOL      0.127811
     50 H22        -5.4870    4.2640   -1.8840 h1        1 MOL      0.108006
     51 H23        -5.3360    2.6380   -3.5170 hc        1 MOL      0.069245
     52 H24        -4.8510    1.3800   -2.4050 hc        1 MOL      0.069245
     53 N5         -6.2720    1.7470    0.0950 n         1 MOL     -0.101094
     54 C17        -7.3310    0.9430    0.5140 c3        1 MOL     -0.269327
     55 C18        -7.6200   -0.2050   -0.4780 c         1 MOL      0.499130
     56 O9         -8.7200   -0.7400   -0.4860 o         1 MOL     -0.546598
     57 H25        -5.3180    1.5270    0.3510 hn        1 MOL      0.151770
     58 H26        -8.2190    1.5360    0.7690 h1        1 MOL      0.126912
     59 H27        -6.9730    0.4730    1.4240 h1        1 MOL      0.126912
     60 N6         -6.6140   -0.6220   -1.2750 n         1 MOL     -0.097128
     61 C19        -6.6940   -1.7220   -2.1970 c3        1 MOL     -0.203445
     62 C20        -6.7370   -3.0830   -1.4010 c         1 MOL      0.481465
     63 O10        -7.1420   -4.0900   -1.9980 o         1 MOL     -0.545665
     64 C21        -5.5500   -1.7450   -3.2860 c3        1 MOL     -0.067433
     65 C22        -4.0900   -1.4990   -2.7900 c         1 MOL      0.534411
     66 O11        -3.5500   -2.2110   -1.9100 o         1 MOL     -0.639775
     67 O12        -3.4440   -0.5720   -3.2690 o         1 MOL     -0.639775
     68 H28        -5.7070   -0.2700   -1.0270 hn        1 MOL      0.058209
     69 H29        -7.6730   -1.6370   -2.6570 h1        1 MOL      0.137571
     70 H30        -5.7220   -1.0920   -4.1410 hc        1 MOL      0.058442
     71 H31        -5.6650   -2.7380   -3.7050 hc        1 MOL      0.058442
     72 N7         -6.2120   -3.1320   -0.1600 n         1 MOL     -0.244212
     73 C23        -6.1300   -4.3590    0.5480 c3        1 MOL     -0.001702
     74 C24        -4.7410   -5.0550    0.5460 c         1 MOL      0.455123
     75 O13        -4.6450   -6.2330    0.8790 o         1 MOL     -0.560440
     76 H32        -5.6830   -2.3380    0.1890 hn        1 MOL      0.258974
     77 H33        -6.9800   -5.0040    0.3080 h1        1 MOL      0.056651
     78 H34        -6.3350   -4.0720    1.5830 h1        1 MOL      0.056651
     79 N8         -3.6220   -4.4010    0.1390 n         1 MOL     -0.074124
     80 C25        -2.1700   -4.8650    0.1450 c3        1 MOL     -0.363499
     81 C26        -1.2180   -3.6850    0.5300 c         1 MOL      0.790587
     82 O14        -1.5010   -2.4880    0.2610 o         1 MOL     -0.663916
     83 C27        -1.8500   -5.3520   -1.3020 c3        1 MOL      0.492827
     84 C28        -2.5950   -6.6200   -1.6070 c3        1 MOL     -0.448468
     85 O15        -2.3590   -4.5350   -2.3300 oh        1 MOL     -0.705831
     86 H35        -3.6970   -3.4220   -0.1110 hn        1 MOL      0.091902
     87 H36        -2.0120   -5.7070    0.8140 h1        1 MOL      0.138962
     88 H37        -0.7960   -5.5850   -1.4290 h1        1 MOL     -0.007571
     89 H38        -3.0800   -3.9280   -2.1060 ho        1 MOL      0.444917
     90 H39        -2.4790   -6.8190   -2.6660 hc        1 MOL      0.116777
     91 H40        -2.1940   -7.4640   -1.0470 hc        1 MOL      0.116777
     92 H41        -3.6720   -6.4980   -1.4530 hc        1 MOL      0.116777
     93 N9         -0.0770   -4.0920    1.0360 n         1 MOL     -0.639087
     94 C29         1.0340   -3.2790    1.4900 c3        1 MOL      0.003657
     95 C30         2.2880   -3.5580    0.6530 c         1 MOL      0.558411
     96 O16         2.8550   -4.6500    0.5610 o         1 MOL     -0.561311
     97 C31         1.2520   -3.6060    3.0270 c3        1 MOL     -0.053903
     98 C32         0.1270   -3.1080    3.9140 c3        1 MOL      0.500940
     99 C33         2.5230   -2.7890    3.4930 c3        1 MOL     -0.249929
    100 C34         0.0630   -3.7240    5.2650 c3        1 MOL     -0.314136
    101 H42        -0.0200   -5.0910    1.1310 hn        1 MOL      0.329224
    102 H43         0.7930   -2.2240    1.3830 h1        1 MOL      0.084102
    103 H44         1.3160   -4.6770    3.2690 hc        1 MOL      0.052707
    104 H45        -0.8510   -3.2700    3.4600 hc        1 MOL     -0.098612
    105 H46         0.0550   -2.0410    4.0770 hc        1 MOL     -0.098612
    106 H47         2.5440   -3.1070    4.5370 hc        1 MOL      0.044729
    107 H48         3.4410   -3.1740    3.0430 hc        1 MOL      0.044729
    108 H49         2.4910   -1.7180    3.3100 hc        1 MOL      0.044729
    109 H50         0.8760   -3.3670    5.8850 hc        1 MOL      0.055335
    110 H51        -0.8570   -3.3370    5.7010 hc        1 MOL      0.055335
    111 H52        -0.0690   -4.7850    5.0650 hc        1 MOL      0.055335
    112 N10         2.6810   -2.5270   -0.1070 n         1 MOL     -0.260790
    113 C35         3.9640   -2.5040   -0.9520 c3        1 MOL     -0.132782
    114 C36         5.2180   -2.0630   -0.0690 c         1 MOL      0.273652
    115 O17         5.0720   -1.4630    1.0190 o         1 MOL     -0.219852
    116 C37         3.8640   -1.4000   -2.0170 c3        1 MOL      0.326880
    117 C38         2.7600   -1.4980   -3.0860 c3        1 MOL     -0.166684
    118 O18         3.7310   -0.2040   -1.3630 oh        1 MOL     -0.579394
    119 H53         2.0700   -1.7220   -0.0890 hn        1 MOL      0.264075
    120 H54         4.0520   -3.4400   -1.4890 h1        1 MOL      0.108040
    121 H55         4.7990   -1.4310   -2.5800 h1        1 MOL     -0.028675
    122 H56         2.8610   -0.1730   -0.9670 ho        1 MOL      0.379679
    123 H57         2.8020   -0.5820   -3.6720 hc        1 MOL      0.036067
    124 H58         2.9600   -2.3220   -3.7650 hc        1 MOL      0.036067
    125 H59         1.7560   -1.5670   -2.6740 hc        1 MOL      0.036067
    126 N11         6.4380   -2.3250   -0.5130 n         1 MOL     -0.246004
    127 C39         7.7140   -1.6830   -0.0450 c3        1 MOL     -0.273037
    128 C40         7.6070   -0.1870    0.2630 c         1 MOL      0.393974
    129 O19         8.3210    0.3700    1.0580 o         1 MOL     -0.491171
    130 C41         8.9370   -1.9390   -0.9580 c3        1 MOL      0.276410
    131 C42         9.1480   -3.4120   -1.0270 c3        1 MOL     -0.343488
    132 O20         8.7050   -1.5890   -2.3130 oh        1 MOL     -0.624375
    133 H60         6.6010   -2.9580   -1.2880 hn        1 MOL      0.283195
    134 H61         7.9070   -2.1320    0.9320 h1        1 MOL      0.174830
    135 H62         9.8650   -1.4860   -0.5940 h1        1 MOL      0.076733
    136 H63         9.5410   -1.5610   -2.7650 ho        1 MOL      0.401330
    137 H64         8.2470   -3.9120   -1.3980 hc        1 MOL      0.100999
    138 H65        10.0470   -3.6190   -1.6010 hc        1 MOL      0.100999
    139 H66         9.3980   -3.7590   -0.0200 hc        1 MOL      0.100999
    140 N12         6.8060    0.4360   -0.5210 n         1 MOL     -0.177127
    141 C43         6.6930    1.8840   -0.5280 c3        1 MOL     -0.172674
    142 C44         5.8420    2.3340    0.6320 c         1 MOL      0.494403
    143 O21         6.0130    3.4070    1.1860 o         1 MOL     -0.543844
    144 C45         6.1490    2.1960   -1.9580 c3        1 MOL     -0.006667
    145 C46         7.1830    2.0190   -3.0530 c3        1 MOL      0.276411
    146 C47         6.6660    2.4060   -4.4310 c3        1 MOL     -0.169901
    147 C48         7.4890    1.7340   -5.5240 c3        1 MOL      0.013198
    148 N13         8.9280    2.1570   -5.4520 n4        1 MOL     -0.378212
    149 H67         6.1740   -0.0580   -1.1300 hn        1 MOL      0.321664
    150 H68         7.6300    2.4000   -0.3150 h1        1 MOL      0.127304
    151 H69         5.8520    3.2380   -1.9820 hc        1 MOL      0.013227
    152 H70         5.2330    1.6330   -2.1330 hc        1 MOL      0.013227
    153 H71         7.5450    0.9900   -3.1060 hc        1 MOL     -0.082863
    154 H72         8.0000    2.6850   -2.7800 hc        1 MOL     -0.082863
    155 H73         6.7520    3.4880   -4.5550 hc        1 MOL      0.068151
    156 H74         5.6260    2.0870   -4.4620 hc        1 MOL      0.068151
    157 H75         6.9770    1.7360   -6.4830 hx        1 MOL      0.101057
    158 H76         7.3970    0.6810   -5.2470 hx        1 MOL      0.101057
    159 H77         8.8180    3.1540   -5.5590 hn        1 MOL      0.315339
    160 H78         9.3570    2.0640   -4.5380 hn        1 MOL      0.315339
    161 H79         9.4640    1.7670   -6.2140 hn        1 MOL      0.315339
    162 N14         4.8870    1.4950    1.0730 n         1 MOL      0.053334
    163 C49         4.0290    1.7360    2.1960 c3        1 MOL     -0.095142
    164 C50         4.7100    1.2540    3.5220 c         1 MOL      0.383238
    165 O22         4.7930    2.0360    4.4950 o         1 MOL     -0.519980
    166 C51         2.6630    1.1040    1.8790 c3        1 MOL      0.256687
    167 C52         1.9680    1.8300    0.7480 c3        1 MOL     -0.170016
    168 C53         0.8780    0.9270    0.0980 c         1 MOL      0.682313
    169 O23         1.1390   -0.2460   -0.3500 o         1 MOL     -0.686455
    170 O24        -0.2250    1.4050   -0.1380 o         1 MOL     -0.686455
    171 H80         4.9090    0.5820    0.6340 hn        1 MOL     -0.180034
    172 H81         3.9050    2.8150    2.2760 h1        1 MOL      0.088090
    173 H82         2.0220    1.1510    2.7600 hc        1 MOL     -0.050936
    174 H83         2.7890    0.0370    1.6910 hc        1 MOL     -0.050936
    175 H84         2.6300    2.2870    0.0240 hc        1 MOL      0.021160
    176 H85         1.4750    2.6280    1.3060 hc        1 MOL      0.021160
    177 N15         5.3590    0.0570    3.4820 n         1 MOL     -0.044088
    178 C54         6.2130   -0.4420    4.5860 c3        1 MOL     -0.293096
    179 H86         6.8720   -1.2250    4.2100 h1        1 MOL      0.112279
    180 H87         6.8130    0.3780    4.9820 h1        1 MOL      0.112279
    181 H88         5.5830   -0.8480    5.3790 h1        1 MOL      0.112279
    182 H89         5.1840   -0.4500    2.6230 hn        1 MOL      0.087708
    183 Ca1        -1.6650   -0.3180   -1.4200 Ca        1 MOL      1.771292
    184 O25        -0.2380    0.5680   -3.5780 oh        1 MOL     -0.887511
    185 H90        -0.5260    1.1300   -4.3020 ho        1 MOL      0.421912
    186 H91         0.7140    0.5970   -3.6280 ho        1 MOL      0.421912
    187 O26        -0.5830   -2.5250   -2.6030 oh        1 MOL     -0.887511
    188 H92        -1.1030   -3.3230   -2.5360 ho        1 MOL      0.421912
    189 H93        -0.3890   -2.4450   -3.5300 ho        1 MOL      0.421912
@<TRIPOS>BOND
     1    1    2 1   
     2    1    4 1   
     3    1    5 1   
     4    1    6 1   
     5    2    3 2   
     6    2    7 1   
     7    7    8 1   
     8    7   15 1   
     9    8    9 1   
    10    8   11 1   
    11    8   16 1   
    12    9   10 2   
    13    9   19 1   
    14   11   12 1   
    15   11   17 1   
    16   11   18 1   
    17   12   13 1   
    18   12   14 1   
    19   19   20 1   
    20   19   28 1   
    21   20   21 1   
    22   20   23 1   
    23   20   29 1   
    24   21   22 2   
    25   21   41 1   
    26   23   24 1   
    27   23   30 1   
    28   23   31 1   
    29   24   25 1   
    30   24   32 1   
    31   24   33 1   
    32   25   26 1   
    33   25   34 1   
    34   25   35 1   
    35   26   27 1   
    36   26   36 1   
    37   26   37 1   
    38   27   38 1   
    39   27   39 1   
    40   27   40 1   
    41   41   42 1   
    42   41   49 1   
    43   42   43 1   
    44   42   45 1   
    45   42   50 1   
    46   43   44 2   
    47   43   53 1   
    48   45   46 1   
    49   45   51 1   
    50   45   52 1   
    51   46   47 1   
    52   46   48 1   
    53   53   54 1   
    54   53   57 1   
    55   54   55 1   
    56   54   58 1   
    57   54   59 1   
    58   55   56 2   
    59   55   60 1   
    60   60   61 1   
    61   60   68 1   
    62   61   62 1   
    63   61   64 1   
    64   61   69 1   
    65   62   63 2   
    66   62   72 1   
    67   64   65 1   
    68   64   70 1   
    69   64   71 1   
    70   65   66 1   
    71   65   67 1   
    72   72   73 1   
    73   72   76 1   
    74   73   74 1   
    75   73   77 1   
    76   73   78 1   
    77   74   75 2   
    78   74   79 1   
    79   79   80 1   
    80   79   86 1   
    81   80   81 1   
    82   80   83 1   
    83   80   87 1   
    84   81   82 2   
    85   81   93 1   
    86   83   84 1   
    87   83   85 1   
    88   83   88 1   
    89   84   90 1   
    90   84   91 1   
    91   84   92 1   
    92   85   89 1   
    93   93   94 1   
    94   93  101 1   
    95   94   95 1   
    96   94   97 1   
    97   94  102 1   
    98   95   96 2   
    99   95  112 1   
   100   97   98 1   
   101   97   99 1   
   102   97  103 1   
   103   98  100 1   
   104   98  104 1   
   105   98  105 1   
   106   99  106 1   
   107   99  107 1   
   108   99  108 1   
   109  100  109 1   
   110  100  110 1   
   111  100  111 1   
   112  112  113 1   
   113  112  119 1   
   114  113  114 1   
   115  113  116 1   
   116  113  120 1   
   117  114  115 2   
   118  114  126 1   
   119  116  117 1   
   120  116  118 1   
   121  116  121 1   
   122  117  123 1   
   123  117  124 1   
   124  117  125 1   
   125  118  122 1   
   126  126  127 1   
   127  126  133 1   
   128  127  128 1   
   129  127  130 1   
   130  127  134 1   
   131  128  129 2   
   132  128  140 1   
   133  130  131 1   
   134  130  132 1   
   135  130  135 1   
   136  131  137 1   
   137  131  138 1   
   138  131  139 1   
   139  132  136 1   
   140  140  141 1   
   141  140  149 1   
   142  141  142 1   
   143  141  144 1   
   144  141  150 1   
   145  142  143 2   
   146  142  162 1   
   147  144  145 1   
   148  144  151 1   
   149  144  152 1   
   150  145  146 1   
   151  145  153 1   
   152  145  154 1   
   153  146  147 1   
   154  146  155 1   
   155  146  156 1   
   156  147  148 1   
   157  147  157 1   
   158  147  158 1   
   159  148  159 1   
   160  148  160 1   
   161  148  161 1   
   162  162  163 1   
   163  162  171 1   
   164  163  164 1   
   165  163  166 1   
   166  163  172 1   
   167  164  165 2   
   168  164  177 1   
   169  166  167 1   
   170  166  173 1   
   171  166  174 1   
   172  167  168 1   
   173  167  175 1   
   174  167  176 1   
   175  168  169 1   
   176  168  170 1   
   177  177  178 1   
   178  177  182 1   
   179  178  179 1   
   180  178  180 1   
   181  178  181 1   
   182  184  185 1   
   183  184  186 1   
   184  187  188 1   
   185  187  189 1   
@<TRIPOS>SUBSTRUCTURE
     1 MOL         1 TEMP              0 ****  ****    0 ROOT
