@<TRIPOS>MOLECULE
MOL
  189   185     1     0     0
SMALL
resp


@<TRIPOS>ATOM
      1 C1          0.0610    3.6570   -5.0980 c3        1 MOL     -0.168515
      2 C2          0.6330    3.3850   -3.7050 c         1 MOL      0.735181
      3 O1          0.0480    3.7400   -2.6970 o         1 MOL     -0.576567
      4 H1          0.6770    4.3990   -5.6050 hc        1 MOL      0.032266
      5 H2          0.0570    2.7330   -5.6750 hc        1 MOL      0.032266
      6 H3         -0.9580    4.0320   -5.0050 hc        1 MOL      0.032266
      7 N1          1.7940    2.7390   -3.6270 n         1 MOL     -0.653925
      8 C3          2.3110    2.1890   -2.3770 c3        1 MOL      0.348173
      9 C4          2.7440    3.3860   -1.4690 c         1 MOL      0.243934
     10 O2          3.6460    4.1290   -1.8790 o         1 MOL     -0.533733
     11 C5          3.4370    1.2950   -2.7100 c3        1 MOL     -0.161822
     12 C6          4.0580    0.5350   -1.4430 c         1 MOL      0.906337
     13 O3          3.6080    0.7730   -0.2990 o         1 MOL     -0.757428
     14 O4          4.9520   -0.2620   -1.6040 o         1 MOL     -0.757428
     15 H4          2.2810    2.5100   -4.4810 hn        1 MOL      0.334041
     16 H5          1.6000    1.5450   -1.8620 h1        1 MOL     -0.049766
     17 H6          4.2790    1.7650   -3.2130 hc        1 MOL      0.016957
     18 H7          3.0520    0.5490   -3.4000 hc        1 MOL      0.016957
     19 N2          2.2100    3.5290   -0.2310 n         1 MOL      0.023696
     20 C7          2.3240    4.7670    0.5180 c3        1 MOL     -0.097813
     21 C8          2.7420    4.6040    1.9480 c         1 MOL      0.627787
     22 O5          2.7170    5.5560    2.6950 o         1 MOL     -0.587822
     23 C9          1.0270    5.5490    0.4380 c3        1 MOL      0.117470
     24 C10         0.8190    6.3040   -0.8870 c3        1 MOL     -0.218029
     25 C11        -0.7010    6.5340   -1.2600 c3        1 MOL     -0.309995
     26 C12        -0.9730    6.9040   -2.7330 c3        1 MOL      0.023335
     27 N3         -0.1320    8.0450   -3.2200 n4        1 MOL     -0.254391
     28 H8          1.5930    2.7880    0.0840 hn        1 MOL      0.090579
     29 H9          3.0960    5.3770    0.0600 h1        1 MOL      0.067902
     30 H10         0.9360    6.3020    1.2270 hc        1 MOL      0.010306
     31 H11         0.1850    4.8620    0.5760 hc        1 MOL      0.010306
     32 H12         1.2140    5.6620   -1.6860 hc        1 MOL      0.080889
     33 H13         1.3980    7.2230   -0.9870 hc        1 MOL      0.080889
     34 H14        -1.1960    7.2970   -0.6680 hc        1 MOL      0.150216
     35 H15        -1.2720    5.6160   -1.1550 hc        1 MOL      0.150216
     36 H16        -2.0210    7.1630   -2.7790 hx        1 MOL      0.098080
     37 H17        -0.7540    6.0870   -3.4310 hx        1 MOL      0.098080
     38 H18        -0.3920    8.3620   -4.1380 hn        1 MOL      0.288106
     39 H19        -0.1820    8.8590   -2.6220 hn        1 MOL      0.288106
     40 H20         0.8450    7.7870   -3.1690 hn        1 MOL      0.288106
     41 N4          3.3210    3.4990    2.2780 n         1 MOL     -0.488339
     42 C13         4.2030    3.2760    3.4640 c3        1 MOL      0.189944
     43 C14         5.4440    2.4790    3.1230 c         1 MOL      0.395076
     44 O6          6.2950    2.2790    4.0230 o         1 MOL     -0.524389
     45 C15         3.4280    2.6580    4.6850 c3        1 MOL     -0.371565
     46 C16         2.4540    1.5490    4.2110 c         1 MOL      0.894315
     47 O7          1.4560    1.2380    4.9150 o         1 MOL     -0.737408
     48 O8          2.7140    0.9560    3.1640 o         1 MOL     -0.737408
     49 H21         3.1080    2.6890    1.7050 hn        1 MOL      0.219106
     50 H22         4.5850    4.2350    3.8100 h1        1 MOL      0.071505
     51 H23         2.9570    3.5030    5.1780 hc        1 MOL      0.096034
     52 H24         4.1540    2.2050    5.3520 hc        1 MOL      0.096034
     53 N5          5.5600    2.0500    1.8520 n         1 MOL     -0.265933
     54 C17         6.9100    1.7090    1.2950 c3        1 MOL     -0.246888
     55 C18         7.4060    0.2480    1.3890 c         1 MOL      0.529029
     56 O9          8.5500   -0.0330    1.1020 o         1 MOL     -0.560314
     57 H25         4.7390    2.1110    1.2720 hn        1 MOL      0.189778
     58 H26         7.5660    2.3800    1.8400 h1        1 MOL      0.139074
     59 H27         7.0360    1.9920    0.2480 h1        1 MOL      0.139074
     60 N6          6.5220   -0.6630    1.8480 n         1 MOL     -0.250285
     61 C19         6.7570   -2.1520    1.9990 c3        1 MOL     -0.129867
     62 C20         7.0400   -2.9640    0.6960 c         1 MOL      0.484566
     63 O10         7.4180   -4.1660    0.7520 o         1 MOL     -0.547762
     64 C21         5.5600   -2.6570    2.8330 c3        1 MOL     -0.169605
     65 C22         4.2360   -2.2910    2.2790 c         1 MOL      0.738476
     66 O11         3.2560   -1.9920    3.0150 o         1 MOL     -0.746356
     67 O12         4.0620   -2.2430    1.0430 o         1 MOL     -0.746356
     68 H28         5.5800   -0.3460    2.0060 hn        1 MOL      0.236880
     69 H29         7.5960   -2.3370    2.6660 h1        1 MOL      0.129235
     70 H30         5.6240   -2.0770    3.7580 hc        1 MOL      0.075086
     71 H31         5.5880   -3.7070    3.1120 hc        1 MOL      0.075086
     72 N7          6.7570   -2.3930   -0.4730 n         1 MOL     -0.282617
     73 C23         6.7790   -3.1530   -1.6980 c3        1 MOL     -0.110998
     74 C24         5.5530   -3.9450   -1.9150 c         1 MOL      0.478236
     75 O13         5.5740   -4.9240   -2.6840 o         1 MOL     -0.561667
     76 H32         6.3420   -1.4750   -0.5080 hn        1 MOL      0.316178
     77 H33         7.5870   -3.8790   -1.7410 h1        1 MOL      0.091283
     78 H34         7.0000   -2.4790   -2.5270 h1        1 MOL      0.091283
     79 N8          4.4320   -3.5160   -1.3410 n         1 MOL     -0.024180
     80 C25         3.1230   -4.0570   -1.6050 c3        1 MOL     -0.545581
     81 C26         1.9370   -3.0480   -1.5820 c         1 MOL      1.016341
     82 O14         1.8700   -2.0840   -0.8500 o         1 MOL     -0.827079
     83 C27         2.8090   -5.2130   -0.6040 c3        1 MOL      0.486017
     84 C28         3.7300   -6.3980   -0.7110 c3        1 MOL     -0.476199
     85 O15         2.9770   -4.6190    0.6570 oh        1 MOL     -0.644574
     86 H35         4.4720   -2.7820   -0.6520 hn        1 MOL      0.143659
     87 H36         3.1250   -4.5280   -2.5890 h1        1 MOL      0.148225
     88 H37         1.7650   -5.5180   -0.6240 h1        1 MOL      0.004073
     89 H38         3.5990   -3.8910    0.6110 ho        1 MOL      0.426541
     90 H39         3.7170   -6.7240   -1.7440 hc        1 MOL      0.125437
     91 H40         4.7540   -6.1120   -0.4840 hc        1 MOL      0.125437
     92 H41         3.4090   -7.2540   -0.1090 hc        1 MOL      0.125437
     93 N9          0.9860   -3.3070   -2.4430 n         1 MOL     -0.730467
     94 C29        -0.2150   -2.4620   -2.5480 c3        1 MOL      0.066525
     95 C30        -1.3720   -3.2030   -1.7730 c         1 MOL      0.479075
     96 O16        -1.5170   -4.4230   -1.8960 o         1 MOL     -0.566560
     97 C31        -0.5460   -2.1140   -3.9510 c3        1 MOL      0.137451
     98 C32         0.5790   -1.2750   -4.6270 c3        1 MOL      0.256533
     99 C33        -1.9390   -1.4890   -4.0060 c3        1 MOL     -0.074071
    100 C34         0.3030   -1.1480   -6.1380 c3        1 MOL     -0.350369
    101 H42         1.0970   -4.1020   -3.0510 hn        1 MOL      0.329061
    102 H43        -0.0240   -1.5060   -2.0610 h1        1 MOL      0.108987
    103 H44        -0.7400   -3.0300   -4.5160 hc        1 MOL     -0.002808
    104 H45         1.5100   -1.8340   -4.5140 hc        1 MOL     -0.056713
    105 H46         0.6920   -0.3200   -4.1120 hc        1 MOL     -0.056713
    106 H47        -2.2100   -1.1880   -5.0150 hc        1 MOL     -0.017786
    107 H48        -2.7010   -2.2000   -3.6970 hc        1 MOL     -0.017786
    108 H49        -2.0270   -0.6590   -3.3070 hc        1 MOL     -0.017786
    109 H50         1.2000   -0.6280   -6.4530 hc        1 MOL      0.079969
    110 H51         0.0450   -2.1340   -6.5150 hc        1 MOL      0.079969
    111 H52        -0.5230   -0.4550   -6.3140 hc        1 MOL      0.079969
    112 N10        -2.2140   -2.4750   -1.0850 n         1 MOL     -0.052743
    113 C35        -3.4260   -3.0070   -0.3820 c3        1 MOL     -0.029049
    114 C36        -4.7620   -2.5710   -1.0220 c         1 MOL      0.328602
    115 O17        -4.7880   -1.7640   -1.9540 o         1 MOL     -0.375875
    116 C37        -3.4620   -2.5630    1.1150 c3        1 MOL      0.116517
    117 C38        -2.1050   -2.7480    1.8630 c3        1 MOL     -0.440016
    118 O18        -3.8180   -1.2280    1.3660 oh        1 MOL     -0.530316
    119 H53        -2.0130   -1.4890   -0.9780 hn        1 MOL      0.196449
    120 H54        -3.3590   -4.0940   -0.3090 h1        1 MOL      0.079622
    121 H55        -4.2290   -3.1140    1.6660 h1        1 MOL      0.033731
    122 H56        -3.1740   -0.9180    2.0040 ho        1 MOL      0.423866
    123 H57        -1.8270   -3.7700    1.6290 hc        1 MOL      0.112020
    124 H58        -1.2960   -2.1060    1.5270 hc        1 MOL      0.112020
    125 H59        -2.1350   -2.5630    2.9340 hc        1 MOL      0.112020
    126 N11        -5.8910   -3.0030   -0.5030 n         1 MOL     -0.274671
    127 C39        -7.2010   -2.4640   -1.0050 c3        1 MOL     -0.083972
    128 C40        -7.4640   -1.0180   -0.5870 c         1 MOL      0.508744
    129 O19        -7.6820   -0.2080   -1.4980 o         1 MOL     -0.486136
    130 C41        -8.3030   -3.2640   -0.2230 c3        1 MOL      0.209913
    131 C42        -8.4970   -4.7050   -0.6400 c3        1 MOL     -0.348096
    132 O20        -7.9480   -3.2820    1.1980 oh        1 MOL     -0.693929
    133 H60        -5.8070   -3.5590    0.3430 hn        1 MOL      0.264922
    134 H61        -7.3660   -2.5680   -2.0780 h1        1 MOL      0.144186
    135 H62        -9.1990   -2.6690   -0.3060 h1        1 MOL      0.057926
    136 H63        -8.5350   -3.8590    1.6850 ho        1 MOL      0.429055
    137 H64        -9.4810   -5.1250   -0.4230 hc        1 MOL      0.109680
    138 H65        -8.4220   -4.6500   -1.7330 hc        1 MOL      0.109680
    139 H66        -7.6320   -5.3070   -0.3540 hc        1 MOL      0.109680
    140 N12        -7.0870   -0.6430    0.6800 n         1 MOL     -0.434534
    141 C43        -7.0160    0.7380    1.1530 c3        1 MOL     -0.333247
    142 C44        -6.1370    1.6240    0.3690 c         1 MOL      0.507111
    143 O21        -6.5200    2.7430    0.0430 o         1 MOL     -0.517743
    144 C45        -6.9040    0.9280    2.6850 c3        1 MOL      0.216485
    145 C46        -7.9910    0.1490    3.3710 c3        1 MOL     -0.110297
    146 C47        -7.8700    0.4050    4.8830 c3        1 MOL     -0.087451
    147 C48        -9.0420   -0.2530    5.6790 c3        1 MOL      0.060801
    148 N13        -9.0760    0.2650    7.0730 n4        1 MOL     -0.255979
    149 H67        -6.8590   -1.3530    1.3690 hn        1 MOL      0.367519
    150 H68        -7.9610    1.1130    0.7770 h1        1 MOL      0.159471
    151 H69        -6.9550    1.9770    2.9470 hc        1 MOL     -0.020754
    152 H70        -5.8740    0.6610    2.9050 hc        1 MOL     -0.020754
    153 H71        -7.8470   -0.8920    3.0780 hc        1 MOL      0.054741
    154 H72        -8.9240    0.6020    3.0150 hc        1 MOL      0.054741
    155 H73        -7.8830    1.4740    5.0550 hc        1 MOL      0.061272
    156 H74        -6.9560   -0.1490    5.1070 hc        1 MOL      0.061272
    157 H75        -8.9600   -1.3360    5.7360 hx        1 MOL      0.071306
    158 H76        -9.9670    0.0400    5.1850 hx        1 MOL      0.071306
    159 H77        -9.0950    1.2700    7.1390 hn        1 MOL      0.285469
    160 H78        -9.7850   -0.1470    7.6600 hn        1 MOL      0.285469
    161 H79        -8.3000   -0.1240    7.5980 hn        1 MOL      0.285469
    162 N14        -4.9880    1.1110    0.0170 n         1 MOL     -0.107966
    163 C49        -4.0440    1.8750   -0.8530 c3        1 MOL     -0.330329
    164 C50        -4.6590    2.1890   -2.2330 c         1 MOL      0.434807
    165 O22        -4.6270    3.3800   -2.7060 o         1 MOL     -0.553683
    166 C51        -2.6390    1.3640   -1.0090 c3        1 MOL      0.293570
    167 C52        -1.8980    1.5800    0.3670 c3        1 MOL     -0.113449
    168 C53        -0.4940    0.9790    0.4370 c         1 MOL      0.665805
    169 O23        -0.3490   -0.0440   -0.2090 o         1 MOL     -0.672379
    170 O24         0.3540    1.6730    1.0800 o         1 MOL     -0.672379
    171 H80        -4.7470    0.1770    0.3280 hn        1 MOL      0.224228
    172 H81        -3.9320    2.8250   -0.3220 h1        1 MOL      0.119113
    173 H82        -2.1170    1.9790   -1.7460 hc        1 MOL     -0.042914
    174 H83        -2.5950    0.3350   -1.3430 hc        1 MOL     -0.042914
    175 H84        -2.4440    1.1990    1.2360 hc        1 MOL     -0.004032
    176 H85        -1.6370    2.6300    0.4730 hc        1 MOL     -0.004032
    177 N15        -5.2390    1.2050   -2.8980 n         1 MOL     -0.008880
    178 C54        -5.8660    1.4310   -4.2210 c3        1 MOL     -0.381699
    179 H86        -5.2820    2.1640   -4.7780 h1        1 MOL      0.135972
    180 H87        -5.8960    0.4930   -4.7750 h1        1 MOL      0.135972
    181 H88        -6.8810    1.8050   -4.0830 h1        1 MOL      0.135972
    182 H89        -5.1890    0.2750   -2.4930 hn        1 MOL      0.109736
    183 Ca1         1.9420   -0.6040    1.2170 Ca        1 MOL      1.745066
    184 O25         0.8420   -3.0900    1.7740 oh        1 MOL     -0.781691
    185 H90         0.5500   -3.6080    2.5250 ho        1 MOL      0.379882
    186 H91         1.4640   -3.6580    1.3280 ho        1 MOL      0.379882
    187 O26         0.3670   -0.7110    3.3350 oh        1 MOL     -0.781691
    188 H92         0.3510   -1.6000    3.7030 ho        1 MOL      0.379882
    189 H93         0.6440   -0.1580    4.0680 ho        1 MOL      0.379882
@<TRIPOS>BOND
     1    1    2 1   
     2    1    4 1   
     3    1    5 1   
     4    1    6 1   
     5    2    3 2   
     6    2    7 1   
     7    7    8 1   
     8    7   15 1   
     9    8    9 1   
    10    8   11 1   
    11    8   16 1   
    12    9   10 2   
    13    9   19 1   
    14   11   12 1   
    15   11   17 1   
    16   11   18 1   
    17   12   13 1   
    18   12   14 1   
    19   19   20 1   
    20   19   28 1   
    21   20   21 1   
    22   20   23 1   
    23   20   29 1   
    24   21   22 2   
    25   21   41 1   
    26   23   24 1   
    27   23   30 1   
    28   23   31 1   
    29   24   25 1   
    30   24   32 1   
    31   24   33 1   
    32   25   26 1   
    33   25   34 1   
    34   25   35 1   
    35   26   27 1   
    36   26   36 1   
    37   26   37 1   
    38   27   38 1   
    39   27   39 1   
    40   27   40 1   
    41   41   42 1   
    42   41   49 1   
    43   42   43 1   
    44   42   45 1   
    45   42   50 1   
    46   43   44 2   
    47   43   53 1   
    48   45   46 1   
    49   45   51 1   
    50   45   52 1   
    51   46   47 1   
    52   46   48 1   
    53   53   54 1   
    54   53   57 1   
    55   54   55 1   
    56   54   58 1   
    57   54   59 1   
    58   55   56 2   
    59   55   60 1   
    60   60   61 1   
    61   60   68 1   
    62   61   62 1   
    63   61   64 1   
    64   61   69 1   
    65   62   63 2   
    66   62   72 1   
    67   64   65 1   
    68   64   70 1   
    69   64   71 1   
    70   65   66 1   
    71   65   67 1   
    72   72   73 1   
    73   72   76 1   
    74   73   74 1   
    75   73   77 1   
    76   73   78 1   
    77   74   75 2   
    78   74   79 1   
    79   79   80 1   
    80   79   86 1   
    81   80   81 1   
    82   80   83 1   
    83   80   87 1   
    84   81   82 2   
    85   81   93 1   
    86   83   84 1   
    87   83   85 1   
    88   83   88 1   
    89   84   90 1   
    90   84   91 1   
    91   84   92 1   
    92   85   89 1   
    93   93   94 1   
    94   93  101 1   
    95   94   95 1   
    96   94   97 1   
    97   94  102 1   
    98   95   96 2   
    99   95  112 1   
   100   97   98 1   
   101   97   99 1   
   102   97  103 1   
   103   98  100 1   
   104   98  104 1   
   105   98  105 1   
   106   99  106 1   
   107   99  107 1   
   108   99  108 1   
   109  100  109 1   
   110  100  110 1   
   111  100  111 1   
   112  112  113 1   
   113  112  119 1   
   114  113  114 1   
   115  113  116 1   
   116  113  120 1   
   117  114  115 2   
   118  114  126 1   
   119  116  117 1   
   120  116  118 1   
   121  116  121 1   
   122  117  123 1   
   123  117  124 1   
   124  117  125 1   
   125  118  122 1   
   126  126  127 1   
   127  126  133 1   
   128  127  128 1   
   129  127  130 1   
   130  127  134 1   
   131  128  129 2   
   132  128  140 1   
   133  130  131 1   
   134  130  132 1   
   135  130  135 1   
   136  131  137 1   
   137  131  138 1   
   138  131  139 1   
   139  132  136 1   
   140  140  141 1   
   141  140  149 1   
   142  141  142 1   
   143  141  144 1   
   144  141  150 1   
   145  142  143 2   
   146  142  162 1   
   147  144  145 1   
   148  144  151 1   
   149  144  152 1   
   150  145  146 1   
   151  145  153 1   
   152  145  154 1   
   153  146  147 1   
   154  146  155 1   
   155  146  156 1   
   156  147  148 1   
   157  147  157 1   
   158  147  158 1   
   159  148  159 1   
   160  148  160 1   
   161  148  161 1   
   162  162  163 1   
   163  162  171 1   
   164  163  164 1   
   165  163  166 1   
   166  163  172 1   
   167  164  165 2   
   168  164  177 1   
   169  166  167 1   
   170  166  173 1   
   171  166  174 1   
   172  167  168 1   
   173  167  175 1   
   174  167  176 1   
   175  168  169 1   
   176  168  170 1   
   177  177  178 1   
   178  177  182 1   
   179  178  179 1   
   180  178  180 1   
   181  178  181 1   
   182  184  185 1   
   183  184  186 1   
   184  187  188 1   
   185  187  189 1   
@<TRIPOS>SUBSTRUCTURE
     1 MOL         1 TEMP              0 ****  ****    0 ROOT
