@<TRIPOS>MOLECULE
MOL
  189   185     1     0     0
SMALL
resp


@<TRIPOS>ATOM
      1 C1          0.6810   -3.4300    6.3130 c3        1 MOL     -0.392248
      2 C2          0.7530   -3.0090    4.7760 c         1 MOL      0.742360
      3 O1          0.6680   -1.8280    4.3750 o         1 MOL     -0.600889
      4 H1          0.8750   -4.4980    6.4070 hc        1 MOL      0.099035
      5 H2          1.4290   -2.8740    6.8780 hc        1 MOL      0.099035
      6 H3         -0.3110   -3.2050    6.7060 hc        1 MOL      0.099035
      7 N1          1.1330   -4.0090    3.9960 n         1 MOL     -0.636783
      8 C3          1.8150   -3.8110    2.6690 c3        1 MOL      0.359824
      9 C4          1.5510   -4.9820    1.6100 c         1 MOL      0.330062
     10 O2          1.4650   -6.1910    1.9290 o         1 MOL     -0.568998
     11 C5          3.3840   -3.7400    2.8400 c3        1 MOL     -0.520442
     12 C6          4.1680   -3.0090    1.7370 c         1 MOL      0.841461
     13 O3          3.5990   -2.5330    0.7210 o         1 MOL     -0.717856
     14 O4          5.3770   -2.7790    1.8690 o         1 MOL     -0.717856
     15 H4          1.3180   -4.8580    4.5170 hn        1 MOL      0.328935
     16 H5          1.4460   -2.8700    2.2790 h1        1 MOL     -0.081908
     17 H6          3.6980   -4.7730    2.6720 hc        1 MOL      0.127543
     18 H7          3.5960   -3.3760    3.8450 hc        1 MOL      0.127543
     19 N2          1.3950   -4.5430    0.3760 n         1 MOL     -0.019338
     20 C7          1.2720   -5.3140   -0.8660 c3        1 MOL     -0.203514
     21 C8          2.4970   -5.1540   -1.8790 c         1 MOL      0.700031
     22 O5          2.7350   -5.9960   -2.7220 o         1 MOL     -0.575709
     23 C9         -0.1160   -5.0790   -1.6150 c3        1 MOL      0.208914
     24 C10        -1.1490   -5.8580   -0.7460 c3        1 MOL      0.103330
     25 C11        -0.2550   -5.6190   -3.0950 c3        1 MOL     -0.292255
     26 C12        -2.6330   -5.6970   -1.1190 c3        1 MOL     -0.154255
     27 H8          1.4060   -3.5460    0.2590 hn        1 MOL      0.222817
     28 H9          1.3960   -6.3570   -0.5590 h1        1 MOL      0.046959
     29 H10        -0.3020   -4.0050   -1.5030 hc        1 MOL     -0.012671
     30 H11        -0.9900   -5.6410    0.3040 hc        1 MOL     -0.036991
     31 H12        -1.0350   -6.9420   -0.8720 hc        1 MOL     -0.036991
     32 H13         0.2040   -4.8680   -3.7360 hc        1 MOL      0.067140
     33 H14         0.3060   -6.5250   -3.3340 hc        1 MOL      0.067140
     34 H15        -1.2980   -5.7400   -3.3770 hc        1 MOL      0.067140
     35 H16        -3.2710   -6.1990   -0.4020 hc        1 MOL      0.034812
     36 H17        -2.7520   -4.6140   -1.1370 hc        1 MOL      0.034812
     37 H18        -2.8070   -6.0740   -2.1320 hc        1 MOL      0.034812
     38 N3          3.3900   -4.1570   -1.7220 n         1 MOL     -0.548038
     39 C13         4.2120   -3.7290   -2.8570 c3        1 MOL      0.071117
     40 C14         5.5280   -2.9750   -2.5870 c         1 MOL      0.421725
     41 O6          6.3700   -2.9100   -3.4920 o         1 MOL     -0.522523
     42 C15         3.3570   -2.9640   -3.8660 c3        1 MOL     -0.330536
     43 C16         2.6170   -1.7590   -3.3110 c         1 MOL      0.827259
     44 O7          2.8890   -1.3620   -2.1820 o         1 MOL     -0.713966
     45 O8          1.7870   -1.1780   -4.0060 o         1 MOL     -0.713966
     46 H19         3.3350   -3.4170   -1.0310 hn        1 MOL      0.180575
     47 H20         4.5910   -4.6220   -3.3550 h1        1 MOL      0.090594
     48 H21         2.6110   -3.6690   -4.2350 hc        1 MOL      0.079757
     49 H22         4.0380   -2.5670   -4.6120 hc        1 MOL      0.079757
     50 N4          5.8720   -2.6550   -1.3190 n         1 MOL     -0.220835
     51 C17         7.2120   -2.1720   -1.0700 c3        1 MOL     -0.054072
     52 C18         7.4830   -0.7550   -1.6340 c         1 MOL      0.439564
     53 O9          8.6610   -0.5580   -2.0450 o         1 MOL     -0.595062
     54 H23         5.2350   -2.8430   -0.5470 hn        1 MOL      0.226223
     55 H24         7.9840   -2.8450   -1.4200 h1        1 MOL      0.058970
     56 H25         7.3240   -2.0460    0.0020 h1        1 MOL      0.058970
     57 N5          6.4980    0.1540   -1.7810 n         1 MOL     -0.035562
     58 C19         6.5410    1.3800   -2.5060 c3        1 MOL     -0.196519
     59 C20         6.7120    2.6450   -1.6530 c         1 MOL      0.412466
     60 O10         6.6840    3.7460   -2.1840 o         1 MOL     -0.519014
     61 C21         5.2110    1.5740   -3.3760 c3        1 MOL     -0.183229
     62 C22         3.9580    1.6670   -2.5150 c         1 MOL      0.806972
     63 O11         3.9940    1.5700   -1.2840 o         1 MOL     -0.727056
     64 O12         2.8730    1.9880   -3.0880 o         1 MOL     -0.727056
     65 H26         5.6070   -0.0330   -1.3300 hn        1 MOL      0.059535
     66 H27         7.3700    1.3860   -3.2140 h1        1 MOL      0.143461
     67 H28         5.0090    0.7980   -4.1170 hc        1 MOL      0.069514
     68 H29         5.2060    2.4870   -3.9680 hc        1 MOL      0.069514
     69 N6          6.8910    2.4550   -0.3460 n         1 MOL     -0.162904
     70 C23         7.1300    3.4740    0.7180 c3        1 MOL     -0.389607
     71 C24         5.8840    4.2070    1.2040 c         1 MOL      0.671013
     72 O13         6.0120    5.1970    1.9200 o         1 MOL     -0.592485
     73 H30         6.7660    1.4980   -0.0740 hn        1 MOL      0.143768
     74 H31         7.7140    4.2010    0.1670 h1        1 MOL      0.157761
     75 H32         7.5570    3.0040    1.5990 h1        1 MOL      0.157761
     76 N7          4.6370    3.7320    0.8840 n         1 MOL     -0.495455
     77 C25         3.3590    4.2600    1.2880 c3        1 MOL     -0.003856
     78 C26         2.2980    3.2210    1.5520 c         1 MOL      0.534964
     79 O14         2.1730    2.1550    0.8480 o         1 MOL     -0.660165
     80 C27         2.8570    5.2660    0.2620 c3        1 MOL     -0.002671
     81 C28         3.6480    6.5790    0.3280 c3        1 MOL     -0.240862
     82 C29         3.0150    7.5510   -0.6290 c         1 MOL      0.688621
     83 N8          3.1080    7.2750   -1.9130 n         1 MOL     -0.868246
     84 O15         2.3870    8.4770   -0.2940 o         1 MOL     -0.574649
     85 H33         4.6160    3.0340    0.1650 hn        1 MOL      0.384592
     86 H34         3.5930    4.7560    2.2230 h1        1 MOL      0.077816
     87 H35         1.8130    5.4420    0.5040 hc        1 MOL      0.070913
     88 H36         2.9770    4.7460   -0.6890 hc        1 MOL      0.070913
     89 H37         4.6840    6.3520    0.0960 hc        1 MOL      0.078574
     90 H38         3.5510    7.0480    1.3060 hc        1 MOL      0.078574
     91 H39         3.7840    6.6190   -2.2810 hn        1 MOL      0.379356
     92 H40         2.5420    7.8090   -2.5590 hn        1 MOL      0.379356
     93 N9          1.4380    3.4260    2.5740 n         1 MOL     -0.508181
     94 C30         0.2140    2.5890    2.7870 c3        1 MOL      0.034129
     95 C31        -0.9120    3.0450    1.8400 c         1 MOL      0.550041
     96 O16        -1.1810    4.2600    1.7970 o         1 MOL     -0.618741
     97 C32        -0.1220    2.5610    4.3200 c3        1 MOL      0.166815
     98 C33        -0.3970    3.8860    5.0260 c3        1 MOL     -0.202990
     99 C34        -1.2470    1.4950    4.6580 c3        1 MOL     -0.202990
    100 H41         1.5660    4.2670    3.1310 hn        1 MOL      0.302267
    101 H42         0.4810    1.5480    2.5780 h1        1 MOL      0.099560
    102 H43         0.7250    2.1920    4.8980 hc        1 MOL     -0.004346
    103 H44        -1.4060    4.2530    4.8410 hc        1 MOL      0.040247
    104 H45        -0.5010    3.8040    6.1170 hc        1 MOL      0.040247
    105 H46         0.4500    4.5340    4.8270 hc        1 MOL      0.040247
    106 H47        -0.8120    0.4980    4.6960 hc        1 MOL      0.040247
    107 H48        -1.5840    1.8080    5.6520 hc        1 MOL      0.040247
    108 H49        -2.0480    1.5730    3.9160 hc        1 MOL      0.040247
    109 N10        -1.4200    2.1480    1.0340 n         1 MOL     -0.044364
    110 C35        -2.5350    2.2790    0.0420 c3        1 MOL      0.000391
    111 C36        -3.8420    2.1050    0.8900 c         1 MOL      0.245888
    112 O17        -3.8880    1.4050    1.8590 o         1 MOL     -0.312247
    113 C37        -2.4080    1.2000   -1.1050 c3        1 MOL     -0.141347
    114 C38        -3.3570    1.3880   -2.3530 c         1 MOL      0.616853
    115 N11        -3.4060    2.5100   -3.0360 n         1 MOL     -0.742508
    116 O18        -4.1460    0.4860   -2.6550 o         1 MOL     -0.498447
    117 H50        -1.1430    1.1900    1.1570 hn        1 MOL     -0.020809
    118 H51        -2.5540    3.2780   -0.4120 h1        1 MOL      0.040462
    119 H52        -2.5800    0.2040   -0.7060 hc        1 MOL      0.089025
    120 H53        -1.3600    1.2640   -1.4170 hc        1 MOL      0.089025
    121 H54        -2.8570    3.3280   -2.8280 hn        1 MOL      0.352020
    122 H55        -3.9110    2.5010   -3.9070 hn        1 MOL      0.352020
    123 N12        -4.9290    2.6370    0.3460 n         1 MOL     -0.242561
    124 C39        -6.2630    2.3460    0.9690 c3        1 MOL      0.019753
    125 C40        -6.6550    0.8560    0.9970 c         1 MOL      0.568380
    126 O19        -7.1860    0.5020    1.9780 o         1 MOL     -0.576056
    127 C41        -7.2920    3.2200    0.3120 c3        1 MOL     -0.251503
    128 C42        -7.4410    3.1270   -1.1760 ca        1 MOL      0.184736
    129 C43        -8.4270    2.2990   -1.7830 ca        1 MOL     -0.235441
    130 C44        -6.7240    4.0820   -2.0060 ca        1 MOL     -0.235441
    131 C45        -8.6110    2.3090   -3.2220 ca        1 MOL     -0.289477
    132 C46        -6.9170    4.1360   -3.4300 ca        1 MOL     -0.289477
    133 C47        -7.8490    3.2330   -3.9970 ca        1 MOL      0.474796
    134 O20        -8.1610    3.4480   -5.3040 oh        1 MOL     -0.637697
    135 H56        -4.9210    2.9780   -0.6020 hn        1 MOL      0.141505
    136 H57        -6.0370    2.6100    2.0120 h1        1 MOL      0.101316
    137 H58        -7.1180    4.2570    0.5930 hc        1 MOL      0.074078
    138 H59        -8.2200    2.9070    0.7910 hc        1 MOL      0.074078
    139 H60        -9.0630    1.6020   -1.2460 ha        1 MOL      0.163381
    140 H61        -5.9190    4.6020   -1.5140 ha        1 MOL      0.163381
    141 H62        -9.4040    1.7340   -3.6790 ha        1 MOL      0.166432
    142 H63        -6.3760    4.8080   -4.0710 ha        1 MOL      0.166432
    143 H64        -8.8010    2.9560   -5.8330 ho        1 MOL      0.443984
    144 N13        -6.2620    0.0490    0.0350 n         1 MOL     -0.366150
    145 C48        -6.5030   -1.4520    0.1690 c3        1 MOL     -0.057410
    146 C49        -5.4890   -2.1730    1.0540 c         1 MOL      0.361171
    147 O21        -5.8160   -3.3280    1.4180 o         1 MOL     -0.506799
    148 C50        -6.5070   -2.1070   -1.2830 c3        1 MOL      0.012688
    149 C51        -7.9450   -2.0140   -1.9060 c3        1 MOL     -0.131864
    150 C52        -7.9510   -2.7350   -3.2360 c         1 MOL      0.664226
    151 O22        -8.9570   -3.4010   -3.5310 o         1 MOL     -0.726731
    152 O23        -7.0830   -2.4220   -4.1170 o         1 MOL     -0.726731
    153 H65        -5.8270    0.4850   -0.7670 hn        1 MOL      0.295685
    154 H66        -7.4500   -1.5600    0.7010 h1        1 MOL      0.128536
    155 H67        -6.2200   -3.1530   -1.3070 hc        1 MOL      0.027247
    156 H68        -5.8230   -1.5400   -1.9160 hc        1 MOL      0.027247
    157 H69        -8.2330   -0.9640   -1.9420 hc        1 MOL      0.002214
    158 H70        -8.7020   -2.4100   -1.2230 hc        1 MOL      0.002214
    159 N14        -4.3570   -1.5060    1.4410 n         1 MOL     -0.100180
    160 C53        -3.4740   -1.9870    2.4370 c3        1 MOL     -0.214956
    161 C54        -3.8440   -1.4880    3.9010 c         1 MOL      0.516286
    162 O24        -3.6190   -2.1550    4.8990 o         1 MOL     -0.559816
    163 C55        -2.0070   -1.6190    2.1320 c3        1 MOL      0.008410
    164 C56        -1.4310   -2.0310    0.8170 c3        1 MOL      0.051497
    165 C57        -0.0840   -1.4020    0.4640 c         1 MOL      0.571433
    166 O25         0.0540   -0.2080    0.7880 o         1 MOL     -0.612541
    167 O26         0.8280   -2.0010   -0.1910 o         1 MOL     -0.612541
    168 H71        -4.1790   -0.5920    1.0650 hn        1 MOL      0.089749
    169 H72        -3.6050   -3.0640    2.3740 h1        1 MOL      0.108069
    170 H73        -1.3910   -1.9740    2.9570 hc        1 MOL      0.047813
    171 H74        -1.9570   -0.5320    2.2170 hc        1 MOL      0.047813
    172 H75        -2.1020   -1.8440   -0.0280 hc        1 MOL     -0.001938
    173 H76        -1.3490   -3.1180    0.9440 hc        1 MOL     -0.001938
    174 N15        -4.5830   -0.3600    3.9810 n         1 MOL     -0.164735
    175 C58        -4.8560    0.3330    5.3100 c3        1 MOL     -0.156745
    176 H77        -5.4920   -0.3030    5.9260 h1        1 MOL      0.070353
    177 H78        -3.9140    0.5140    5.8270 h1        1 MOL      0.070353
    178 H79        -5.3600    1.2820    5.1280 h1        1 MOL      0.070353
    179 H80        -4.8810    0.0940    3.1360 hn        1 MOL      0.137041
    180 Ca1         2.6360   -0.1390    0.0800 Ca        1 MOL      1.771801
    181 O27         5.2260   -0.1020    1.1110 oh        1 MOL     -0.859715
    182 H81         5.8130    0.3920    1.6840 ho        1 MOL      0.417460
    183 H82         5.4380   -1.0170    1.2840 ho        1 MOL      0.417460
    184 O28         2.5810   -0.4240    2.8190 oh        1 MOL     -0.859715
    185 H83         3.1150   -0.5460    3.6050 ho        1 MOL      0.417460
    186 H84         1.7360   -0.8280    3.0460 ho        1 MOL      0.417460
    187 O29         1.0210    0.6090   -1.9320 oh        1 MOL     -0.859715
    188 H85         1.5040    1.3710   -2.2620 ho        1 MOL      0.417460
    189 H86         1.4400   -0.1380   -2.3680 ho        1 MOL      0.417460
@<TRIPOS>BOND
     1    1    2 1   
     2    1    4 1   
     3    1    5 1   
     4    1    6 1   
     5    2    3 2   
     6    2    7 1   
     7    7    8 1   
     8    7   15 1   
     9    8    9 1   
    10    8   11 1   
    11    8   16 1   
    12    9   10 2   
    13    9   19 1   
    14   11   12 1   
    15   11   17 1   
    16   11   18 1   
    17   12   13 1   
    18   12   14 1   
    19   19   20 1   
    20   19   27 1   
    21   20   21 1   
    22   20   23 1   
    23   20   28 1   
    24   21   22 2   
    25   21   38 1   
    26   23   24 1   
    27   23   25 1   
    28   23   29 1   
    29   24   26 1   
    30   24   30 1   
    31   24   31 1   
    32   25   32 1   
    33   25   33 1   
    34   25   34 1   
    35   26   35 1   
    36   26   36 1   
    37   26   37 1   
    38   38   39 1   
    39   38   46 1   
    40   39   40 1   
    41   39   42 1   
    42   39   47 1   
    43   40   41 2   
    44   40   50 1   
    45   42   43 1   
    46   42   48 1   
    47   42   49 1   
    48   43   44 1   
    49   43   45 1   
    50   50   51 1   
    51   50   54 1   
    52   51   52 1   
    53   51   55 1   
    54   51   56 1   
    55   52   53 2   
    56   52   57 1   
    57   57   58 1   
    58   57   65 1   
    59   58   59 1   
    60   58   61 1   
    61   58   66 1   
    62   59   60 2   
    63   59   69 1   
    64   61   62 1   
    65   61   67 1   
    66   61   68 1   
    67   62   63 1   
    68   62   64 1   
    69   69   70 1   
    70   69   73 1   
    71   70   71 1   
    72   70   74 1   
    73   70   75 1   
    74   71   72 2   
    75   71   76 1   
    76   76   77 1   
    77   76   85 1   
    78   77   78 1   
    79   77   80 1   
    80   77   86 1   
    81   78   79 2   
    82   78   93 1   
    83   80   81 1   
    84   80   87 1   
    85   80   88 1   
    86   81   82 1   
    87   81   89 1   
    88   81   90 1   
    89   82   83 1   
    90   82   84 2   
    91   83   91 1   
    92   83   92 1   
    93   93   94 1   
    94   93  100 1   
    95   94   95 1   
    96   94   97 1   
    97   94  101 1   
    98   95   96 2   
    99   95  109 1   
   100   97   98 1   
   101   97   99 1   
   102   97  102 1   
   103   98  103 1   
   104   98  104 1   
   105   98  105 1   
   106   99  106 1   
   107   99  107 1   
   108   99  108 1   
   109  109  110 1   
   110  109  117 1   
   111  110  111 1   
   112  110  113 1   
   113  110  118 1   
   114  111  112 2   
   115  111  123 1   
   116  113  114 1   
   117  113  119 1   
   118  113  120 1   
   119  114  115 1   
   120  114  116 2   
   121  115  121 1   
   122  115  122 1   
   123  123  124 1   
   124  123  135 1   
   125  124  125 1   
   126  124  127 1   
   127  124  136 1   
   128  125  126 2   
   129  125  144 1   
   130  127  128 1   
   131  127  137 1   
   132  127  138 1   
   133  128  129 ar  
   134  128  130 ar  
   135  129  131 ar  
   136  129  139 1   
   137  130  132 ar  
   138  130  140 1   
   139  131  133 ar  
   140  131  141 1   
   141  132  133 ar  
   142  132  142 1   
   143  133  134 1   
   144  134  143 1   
   145  144  145 1   
   146  144  153 1   
   147  145  146 1   
   148  145  148 1   
   149  145  154 1   
   150  146  147 2   
   151  146  159 1   
   152  148  149 1   
   153  148  155 1   
   154  148  156 1   
   155  149  150 1   
   156  149  157 1   
   157  149  158 1   
   158  150  151 1   
   159  150  152 1   
   160  159  160 1   
   161  159  168 1   
   162  160  161 1   
   163  160  163 1   
   164  160  169 1   
   165  161  162 2   
   166  161  174 1   
   167  163  164 1   
   168  163  170 1   
   169  163  171 1   
   170  164  165 1   
   171  164  172 1   
   172  164  173 1   
   173  165  166 1   
   174  165  167 1   
   175  174  175 1   
   176  174  179 1   
   177  175  176 1   
   178  175  177 1   
   179  175  178 1   
   180  181  182 1   
   181  181  183 1   
   182  184  185 1   
   183  184  186 1   
   184  187  188 1   
   185  187  189 1   
@<TRIPOS>SUBSTRUCTURE
     1 MOL         1 TEMP              0 ****  ****    0 ROOT
