@<TRIPOS>MOLECULE
MOL
  179   176     1     0     0
SMALL
resp


@<TRIPOS>ATOM
      1 C1          2.0380    3.7110    6.6470 c3        1 MOL     -0.300496
      2 C2          2.0580    3.1810    5.2500 c         1 MOL      0.778707
      3 O1          3.1810    2.9000    4.8480 o         1 MOL     -0.559449
      4 H1          1.2450    3.2190    7.2110 hc        1 MOL      0.065201
      5 H2          2.9980    3.5130    7.1250 hc        1 MOL      0.065201
      6 H3          1.8560    4.7850    6.6260 hc        1 MOL      0.065201
      7 N1          0.8680    2.9450    4.7150 n         1 MOL     -0.663396
      8 C3          0.6970    2.5540    3.3000 c3        1 MOL      0.267461
      9 C4          1.0210    3.7040    2.3370 c         1 MOL      0.392472
     10 O2          1.0210    4.8360    2.7600 o         1 MOL     -0.519730
     11 C5         -0.7210    2.0420    3.1610 c3        1 MOL     -0.291695
     12 C6         -0.9830    1.5100    1.7210 c         1 MOL      0.598449
     13 O3         -2.0480    1.6170    1.0790 o         1 MOL     -0.642222
     14 O4         -0.0020    0.9900    1.0570 o         1 MOL     -0.642222
     15 H4          0.0290    3.0850    5.2450 hn        1 MOL      0.336747
     16 H5          1.3900    1.7600    3.0350 h1        1 MOL     -0.045674
     17 H6         -1.2750    2.9700    3.3160 hc        1 MOL      0.088610
     18 H7         -0.9680    1.2420    3.8660 hc        1 MOL      0.088610
     19 N2          1.3880    3.4760    1.1280 n         1 MOL     -0.072486
     20 C7          1.8930    4.4700    0.1720 c3        1 MOL     -0.350851
     21 C8          0.7800    5.3490   -0.4440 c         1 MOL      0.613044
     22 O5          1.0280    6.5260   -0.8020 o         1 MOL     -0.550441
     23 C9          2.7220    3.7410   -0.9290 c3        1 MOL      0.140088
     24 C10         3.3870    4.6830   -1.9460 c3        1 MOL     -0.020347
     25 C11         4.1860    3.8730   -2.9850 c3        1 MOL     -0.016860
     26 C12         4.8960    4.7980   -4.0390 c3        1 MOL      0.161742
     27 N3          5.3580    4.0770   -5.1820 n4        1 MOL     -0.511801
     28 H8          1.3300    2.5240    0.7920 hn        1 MOL      0.116352
     29 H9          2.4890    5.1680    0.7530 h1        1 MOL      0.177443
     30 H10         2.1310    2.9930   -1.4400 hc        1 MOL     -0.006632
     31 H11         3.5500    3.1910   -0.4640 hc        1 MOL     -0.006632
     32 H12         3.9970    5.4260   -1.4240 hc        1 MOL      0.019238
     33 H13         2.6550    5.2540   -2.5220 hc        1 MOL      0.019238
     34 H14         3.4580    3.2020   -3.4440 hc        1 MOL      0.037385
     35 H15         4.9670    3.3750   -2.4250 hc        1 MOL      0.037385
     36 H16         5.7350    5.3190   -3.5840 hx        1 MOL      0.050526
     37 H17         4.2610    5.6510   -4.2700 hx        1 MOL      0.050526
     38 H18         4.6050    3.7680   -5.7880 hn        1 MOL      0.364214
     39 H19         5.9520    4.7130   -5.6850 hn        1 MOL      0.364214
     40 H20         6.0180    3.3430   -4.9610 hn        1 MOL      0.364214
     41 N4         -0.4360    4.7280   -0.6770 n         1 MOL     -0.454427
     42 C13        -1.6430    5.4120   -1.1930 c3        1 MOL      0.207208
     43 C14        -2.8730    5.3510   -0.3360 c         1 MOL      0.383341
     44 O6         -3.5580    6.3110   -0.0940 o         1 MOL     -0.545276
     45 C15        -1.9270    4.9240   -2.6050 c3        1 MOL     -0.264157
     46 C16        -2.1410    3.3830   -2.7900 c         1 MOL      0.733542
     47 O7         -2.0610    2.6010   -1.7970 o         1 MOL     -0.680610
     48 O8         -2.3170    2.9700   -3.9840 o         1 MOL     -0.680610
     49 H21        -0.6240    3.7390   -0.6720 hn        1 MOL      0.274431
     50 H22        -1.4410    6.4620   -1.4150 h1        1 MOL      0.059763
     51 H23        -1.0910    5.1900   -3.2610 hc        1 MOL      0.071701
     52 H24        -2.7650    5.4530   -3.0440 hc        1 MOL      0.071701
     53 N5         -3.0740    4.2400    0.3790 n         1 MOL     -0.026005
     54 C17        -4.0750    4.0420    1.3410 c3        1 MOL      0.005058
     55 C18        -5.3400    3.2150    0.9140 c         1 MOL      0.476623
     56 O9         -6.4270    3.4800    1.3850 o         1 MOL     -0.575764
     57 H25        -2.5400    3.4610    0.0290 hn        1 MOL     -0.056210
     58 H26        -4.4220    4.9490    1.8330 h1        1 MOL      0.047439
     59 H27        -3.5490    3.4490    2.1020 h1        1 MOL      0.047439
     60 N6         -5.1810    2.3260   -0.0280 n         1 MOL     -0.096751
     61 C19        -6.2760    1.7270   -0.7490 c3        1 MOL     -0.207537
     62 C20        -6.9650    0.4560   -0.0870 c         1 MOL      0.523988
     63 O10        -7.7780   -0.2230   -0.7630 o         1 MOL     -0.522600
     64 C21        -5.8760    1.4280   -2.1360 c3        1 MOL     -0.046440
     65 C22        -4.8790    0.2900   -2.2540 c         1 MOL      0.674422
     66 N7         -4.9470   -0.4220   -3.3900 n         1 MOL     -0.921157
     67 O11        -4.0040    0.0300   -1.4100 o         1 MOL     -0.586143
     68 H28        -4.2250    2.1640   -0.3080 hn        1 MOL      0.071659
     69 H29        -7.1330    2.4010   -0.7500 h1        1 MOL      0.154173
     70 H30        -5.4480    2.2800   -2.6540 hc        1 MOL      0.067783
     71 H31        -6.7870    1.1800   -2.6790 hc        1 MOL      0.067783
     72 H32        -5.6390   -0.1800   -4.0800 hn        1 MOL      0.404841
     73 H33        -4.2010   -1.1010   -3.4870 hn        1 MOL      0.404841
     74 N8         -6.6250    0.1580    1.2280 n         1 MOL     -0.347034
     75 C23        -7.0580   -1.0500    2.0030 c3        1 MOL     -0.236611
     76 C24        -6.1610   -2.2890    1.8900 c         1 MOL      0.564817
     77 O12        -6.5250   -3.3260    2.4510 o         1 MOL     -0.512920
     78 H34        -5.8150    0.6320    1.6030 hn        1 MOL      0.283624
     79 H35        -8.0030   -1.3940    1.5700 h1        1 MOL      0.147132
     80 H36        -7.3020   -0.8750    3.0500 h1        1 MOL      0.147132
     81 N9         -4.8910   -2.1080    1.3850 n         1 MOL     -0.325402
     82 C25        -3.7880   -3.0860    1.1730 c3        1 MOL      0.055361
     83 C26        -2.4120   -2.4200    1.2210 c         1 MOL      0.350618
     84 O13        -2.2580   -1.2590    0.8250 o         1 MOL     -0.443289
     85 C27        -3.9400   -3.8150   -0.1080 c3        1 MOL      0.411619
     86 C28        -5.3140   -4.3170   -0.5480 ca        1 MOL     -0.185742
     87 C29        -6.0470   -5.2210    0.2650 ca        1 MOL     -0.153931
     88 C30        -5.9760   -3.7710   -1.6380 ca        1 MOL     -0.153931
     89 C31        -7.3060   -5.6550   -0.1000 ca        1 MOL     -0.147651
     90 C32        -7.2630   -4.1490   -1.9690 ca        1 MOL     -0.147651
     91 C33        -7.9700   -5.0530   -1.2230 ca        1 MOL      0.237375
     92 O14        -9.2590   -5.4360   -1.5040 oh        1 MOL     -0.460392
     93 H37        -4.6480   -1.1750    1.0910 hn        1 MOL      0.154895
     94 H38        -3.9770   -3.7480    2.0120 h1        1 MOL      0.031215
     95 H39        -3.2210   -4.6320   -0.1110 hc        1 MOL     -0.085898
     96 H40        -3.5950   -3.2090   -0.9440 hc        1 MOL     -0.085898
     97 H41        -5.5740   -5.5410    1.1850 ha        1 MOL      0.130330
     98 H42        -5.4340   -3.0050   -2.1710 ha        1 MOL      0.130330
     99 H43        -7.7730   -6.4690    0.4420 ha        1 MOL      0.120667
    100 H44        -7.7520   -3.7480   -2.8440 ha        1 MOL      0.120667
    101 H45        -9.6640   -4.8330   -2.1350 ho        1 MOL      0.353515
    102 N10        -1.4400   -3.2160    1.6460 n         1 MOL     -0.387662
    103 C34        -0.0850   -2.7480    1.5550 c3        1 MOL      0.122930
    104 C35         0.8190   -3.8470    0.9770 c         1 MOL      0.377657
    105 O15         0.6500   -4.9880    1.3140 o         1 MOL     -0.548017
    106 C36         0.5050   -1.9590    2.7740 c3        1 MOL      0.093419
    107 C37         1.8770   -1.3360    2.5520 c3        1 MOL      0.254982
    108 C38         0.5640   -2.8540    4.0020 c3        1 MOL     -0.178655
    109 C39         2.5550   -0.6000    3.7840 c3        1 MOL     -0.479504
    110 H46        -1.5680   -4.1520    1.9960 hn        1 MOL      0.276347
    111 H47        -0.0740   -2.0250    0.7320 h1        1 MOL      0.080198
    112 H48        -0.2100   -1.1650    2.9920 hc        1 MOL      0.037991
    113 H49         1.8380   -0.6510    1.7040 hc        1 MOL     -0.075342
    114 H50         2.4940   -2.1820    2.2630 hc        1 MOL     -0.075342
    115 H51         0.5950   -2.3850    4.9860 hc        1 MOL      0.033611
    116 H52        -0.3070   -3.4930    4.1600 hc        1 MOL      0.033611
    117 H53         1.4330   -3.5060    3.9630 hc        1 MOL      0.033611
    118 H54         1.8780    0.2050    4.1030 hc        1 MOL      0.115775
    119 H55         2.8010   -1.2690    4.6050 hc        1 MOL      0.115775
    120 H56         3.4780   -0.0860    3.5190 hc        1 MOL      0.115775
    121 N11         1.8260   -3.5010    0.1630 n         1 MOL     -0.090859
    122 C40         2.7440   -4.4100   -0.4880 c3        1 MOL      0.016179
    123 C41         4.1840   -4.1250   -0.1000 c         1 MOL      0.473555
    124 O16         4.4710   -3.1700    0.6010 o         1 MOL     -0.423812
    125 C42         2.6490   -4.1910   -1.9800 c3        1 MOL     -0.040937
    126 O17         3.3390   -3.0110   -2.4670 oh        1 MOL     -0.540750
    127 H57         1.8110   -2.5520   -0.1980 hn        1 MOL      0.098096
    128 H58         2.5240   -5.4540   -0.2760 h1        1 MOL      0.067581
    129 H59         1.5970   -4.1550   -2.2650 h1        1 MOL      0.068247
    130 H60         3.0930   -5.0470   -2.4880 h1        1 MOL      0.068247
    131 H61         2.7320   -2.4480   -2.9560 ho        1 MOL      0.405730
    132 N12         5.0840   -5.0120   -0.4210 n         1 MOL     -0.427947
    133 C43         6.4920   -4.9150   -0.0360 c3        1 MOL      0.126095
    134 C44         7.1080   -3.5480   -0.3730 c         1 MOL      0.497435
    135 O18         7.7740   -2.9430    0.4590 o         1 MOL     -0.523735
    136 C45         7.3020   -6.1270   -0.6160 c3        1 MOL     -0.370447
    137 H62         4.7940   -5.9210   -0.7590 hn        1 MOL      0.297749
    138 H63         6.6220   -4.9350    1.0510 h1        1 MOL      0.068912
    139 H64         6.9580   -7.0460   -0.1380 hc        1 MOL      0.112237
    140 H65         7.1970   -6.2380   -1.6920 hc        1 MOL      0.112237
    141 H66         8.3550   -5.9910   -0.4000 hc        1 MOL      0.112237
    142 N13         6.9450   -3.1250   -1.5910 n         1 MOL     -0.445364
    143 C46         7.5130   -1.8530   -2.0940 c3        1 MOL      0.162774
    144 C47         6.9510   -0.5950   -1.4240 c         1 MOL      0.275246
    145 O19         7.5630    0.4570   -1.3940 o         1 MOL     -0.519947
    146 C48         7.2870   -1.6990   -3.5640 c3        1 MOL     -0.306612
    147 H67         6.3950   -3.6740   -2.2270 hn        1 MOL      0.296441
    148 H68         8.5880   -1.8460   -1.8890 h1        1 MOL      0.102360
    149 H69         6.2830   -1.9120   -3.9350 hc        1 MOL      0.079861
    150 H70         7.7060   -0.7350   -3.8460 hc        1 MOL      0.079861
    151 H71         7.9650   -2.4390   -4.0150 hc        1 MOL      0.079861
    152 N14         5.8290   -0.7340   -0.7610 n         1 MOL     -0.018210
    153 C49         5.2360    0.3550    0.0230 c3        1 MOL     -0.096330
    154 C50         5.7020    0.2960    1.5260 c         1 MOL      0.435203
    155 O20         5.9700    1.3350    2.1500 o         1 MOL     -0.544847
    156 C51         3.6790    0.1610    0.0010 c3        1 MOL     -0.019793
    157 C52         3.1780    0.1890   -1.4240 c3        1 MOL      0.201126
    158 C53         1.6720   -0.0200   -1.5090 c         1 MOL      0.731902
    159 O21         0.9410    0.8190   -1.9890 o         1 MOL     -0.742938
    160 O22         1.1420   -1.0410   -1.1280 o         1 MOL     -0.742938
    161 H72         5.3500   -1.6230   -0.7650 hn        1 MOL      0.119214
    162 H73         5.5300    1.3030   -0.4270 h1        1 MOL      0.085610
    163 H74         3.2460    0.9380    0.6430 hc        1 MOL      0.064737
    164 H75         3.4470   -0.7930    0.4690 hc        1 MOL      0.064737
    165 H76         3.6180   -0.6770   -1.9180 hc        1 MOL     -0.127580
    166 H77         3.4960    1.0530   -2.0110 hc        1 MOL     -0.127580
    167 N15         5.9240   -0.8810    2.0310 n         1 MOL     -0.032638
    168 C54         6.5840   -1.1540    3.2820 c3        1 MOL     -0.185711
    169 H78         5.8710   -1.5920    3.9800 h1        1 MOL      0.080898
    170 H79         7.4040   -1.8530    3.1160 h1        1 MOL      0.080898
    171 H80         6.9750   -0.2250    3.6970 h1        1 MOL      0.080898
    172 H81         5.6180   -1.7090    1.5510 hn        1 MOL      0.120374
    173 Ca1        -1.3660    0.2600   -1.0800 Ca        1 MOL      1.663387
    174 O23        -1.6150   -2.2600   -2.1960 oh        1 MOL     -0.787295
    175 H82        -1.8410   -2.1330   -3.1130 ho        1 MOL      0.382038
    176 H83        -1.4650   -3.1920   -2.0990 ho        1 MOL      0.382038
    177 O24        -1.5940    0.3740   -3.6530 oh        1 MOL     -0.787295
    178 H84        -1.5760   -0.2350   -4.3860 ho        1 MOL      0.382038
    179 H85        -2.1470    1.1010   -3.9490 ho        1 MOL      0.382038
@<TRIPOS>BOND
     1    1    2 1   
     2    1    4 1   
     3    1    5 1   
     4    1    6 1   
     5    2    3 2   
     6    2    7 1   
     7    7    8 1   
     8    7   15 1   
     9    8    9 1   
    10    8   11 1   
    11    8   16 1   
    12    9   10 2   
    13    9   19 1   
    14   11   12 1   
    15   11   17 1   
    16   11   18 1   
    17   12   13 1   
    18   12   14 1   
    19   19   20 1   
    20   19   28 1   
    21   20   21 1   
    22   20   23 1   
    23   20   29 1   
    24   21   22 2   
    25   21   41 1   
    26   23   24 1   
    27   23   30 1   
    28   23   31 1   
    29   24   25 1   
    30   24   32 1   
    31   24   33 1   
    32   25   26 1   
    33   25   34 1   
    34   25   35 1   
    35   26   27 1   
    36   26   36 1   
    37   26   37 1   
    38   27   38 1   
    39   27   39 1   
    40   27   40 1   
    41   41   42 1   
    42   41   49 1   
    43   42   43 1   
    44   42   45 1   
    45   42   50 1   
    46   43   44 2   
    47   43   53 1   
    48   45   46 1   
    49   45   51 1   
    50   45   52 1   
    51   46   47 1   
    52   46   48 1   
    53   53   54 1   
    54   53   57 1   
    55   54   55 1   
    56   54   58 1   
    57   54   59 1   
    58   55   56 2   
    59   55   60 1   
    60   60   61 1   
    61   60   68 1   
    62   61   62 1   
    63   61   64 1   
    64   61   69 1   
    65   62   63 2   
    66   62   74 1   
    67   64   65 1   
    68   64   70 1   
    69   64   71 1   
    70   65   66 1   
    71   65   67 2   
    72   66   72 1   
    73   66   73 1   
    74   74   75 1   
    75   74   78 1   
    76   75   76 1   
    77   75   79 1   
    78   75   80 1   
    79   76   77 2   
    80   76   81 1   
    81   81   82 1   
    82   81   93 1   
    83   82   83 1   
    84   82   85 1   
    85   82   94 1   
    86   83   84 2   
    87   83  102 1   
    88   85   86 1   
    89   85   95 1   
    90   85   96 1   
    91   86   87 ar  
    92   86   88 ar  
    93   87   89 ar  
    94   87   97 1   
    95   88   90 ar  
    96   88   98 1   
    97   89   91 ar  
    98   89   99 1   
    99   90   91 ar  
   100   90  100 1   
   101   91   92 1   
   102   92  101 1   
   103  102  103 1   
   104  102  110 1   
   105  103  104 1   
   106  103  106 1   
   107  103  111 1   
   108  104  105 2   
   109  104  121 1   
   110  106  107 1   
   111  106  108 1   
   112  106  112 1   
   113  107  109 1   
   114  107  113 1   
   115  107  114 1   
   116  108  115 1   
   117  108  116 1   
   118  108  117 1   
   119  109  118 1   
   120  109  119 1   
   121  109  120 1   
   122  121  122 1   
   123  121  127 1   
   124  122  123 1   
   125  122  125 1   
   126  122  128 1   
   127  123  124 2   
   128  123  132 1   
   129  125  126 1   
   130  125  129 1   
   131  125  130 1   
   132  126  131 1   
   133  132  133 1   
   134  132  137 1   
   135  133  134 1   
   136  133  136 1   
   137  133  138 1   
   138  134  135 2   
   139  134  142 1   
   140  136  139 1   
   141  136  140 1   
   142  136  141 1   
   143  142  143 1   
   144  142  147 1   
   145  143  144 1   
   146  143  146 1   
   147  143  148 1   
   148  144  145 2   
   149  144  152 1   
   150  146  149 1   
   151  146  150 1   
   152  146  151 1   
   153  152  153 1   
   154  152  161 1   
   155  153  154 1   
   156  153  156 1   
   157  153  162 1   
   158  154  155 2   
   159  154  167 1   
   160  156  157 1   
   161  156  163 1   
   162  156  164 1   
   163  157  158 1   
   164  157  165 1   
   165  157  166 1   
   166  158  159 1   
   167  158  160 1   
   168  167  168 1   
   169  167  172 1   
   170  168  169 1   
   171  168  170 1   
   172  168  171 1   
   173  174  175 1   
   174  174  176 1   
   175  177  178 1   
   176  177  179 1   
@<TRIPOS>SUBSTRUCTURE
     1 MOL         1 TEMP              0 ****  ****    0 ROOT
