@<TRIPOS>MOLECULE
MOL
  189   185     1     0     0
SMALL
resp


@<TRIPOS>ATOM
      1 C1          0.4060   -3.1040    6.2030 c3        1 MOL     -0.514988
      2 C2          0.8980   -2.8010    4.7580 c         1 MOL      0.814053
      3 O1          1.1660   -1.6500    4.4120 o         1 MOL     -0.652651
      4 H1          0.3060   -4.1810    6.3340 hc        1 MOL      0.129961
      5 H2          1.1290   -2.7170    6.9220 hc        1 MOL      0.129961
      6 H3         -0.5600   -2.6270    6.3650 hc        1 MOL      0.129961
      7 N1          1.1600   -3.8290    3.9710 n         1 MOL     -0.669370
      8 C3          1.8100   -3.7560    2.6200 c3        1 MOL      0.277713
      9 C4          1.3720   -4.8490    1.6540 c         1 MOL      0.405698
     10 O2          1.0460   -5.9540    2.1440 o         1 MOL     -0.579518
     11 C5          3.3210   -3.7410    2.6810 c3        1 MOL     -0.241956
     12 C6          4.1080   -3.1410    1.4500 c         1 MOL      0.564399
     13 O3          3.4440   -2.5890    0.5370 o         1 MOL     -0.614900
     14 O4          5.3260   -3.2800    1.4250 o         1 MOL     -0.614900
     15 H4          0.9250   -4.7300    4.3620 hn        1 MOL      0.325645
     16 H5          1.4840   -2.8220    2.1790 h1        1 MOL      0.022104
     17 H6          3.7470   -4.7270    2.8550 hc        1 MOL      0.063728
     18 H7          3.6980   -3.1950    3.5460 hc        1 MOL      0.063728
     19 N2          1.5000   -4.4660    0.3700 n         1 MOL     -0.105952
     20 C7          1.3990   -5.4010   -0.7950 c3        1 MOL     -0.256702
     21 C8          2.6090   -5.2840   -1.7980 c         1 MOL      0.585837
     22 O5          2.9590   -6.2910   -2.4510 o         1 MOL     -0.589480
     23 C9          0.0600   -5.0890   -1.5150 c3        1 MOL      0.327332
     24 C10        -1.1270   -5.7000   -0.6460 c3        1 MOL      0.040497
     25 C11        -0.0160   -5.4150   -3.0310 c3        1 MOL     -0.456536
     26 C12        -2.5750   -5.3150   -1.0100 c3        1 MOL     -0.244695
     27 H8          1.6010   -3.4730    0.2700 hn        1 MOL      0.163962
     28 H9          1.3790   -6.4460   -0.4870 h1        1 MOL      0.093396
     29 H10         0.0170   -4.0050   -1.5090 hc        1 MOL     -0.013458
     30 H11        -0.9910   -5.3680    0.3850 hc        1 MOL     -0.010757
     31 H12        -1.0300   -6.7820   -0.6350 hc        1 MOL     -0.010757
     32 H13         0.5470   -4.7390   -3.6770 hc        1 MOL      0.103415
     33 H14         0.4240   -6.3730   -3.2960 hc        1 MOL      0.103415
     34 H15        -1.0500   -5.2840   -3.3470 hc        1 MOL      0.103415
     35 H16        -2.7570   -5.5760   -2.0480 hc        1 MOL      0.058031
     36 H17        -3.2780   -5.7730   -0.3100 hc        1 MOL      0.058031
     37 H18        -2.5840   -4.2260   -0.8850 hc        1 MOL      0.058031
     38 N3          3.2720   -4.1360   -1.9210 n         1 MOL     -0.410334
     39 C13         3.9930   -3.8140   -3.0970 c3        1 MOL      0.074480
     40 C14         5.3700   -3.1930   -2.8510 c         1 MOL      0.271892
     41 O6          6.2190   -3.1910   -3.7890 o         1 MOL     -0.541769
     42 C15         3.1410   -2.8730   -3.9680 c3        1 MOL     -0.099235
     43 C16         2.5650   -1.6350   -3.1860 c         1 MOL      0.630233
     44 O7          3.0850   -1.2970   -2.0980 o         1 MOL     -0.682310
     45 O8          1.6720   -0.9680   -3.8120 o         1 MOL     -0.682310
     46 H19         3.1960   -3.5450   -1.1140 hn        1 MOL      0.244169
     47 H20         4.1280   -4.6750   -3.7520 h1        1 MOL      0.102039
     48 H21         2.3990   -3.4920   -4.4760 hc        1 MOL      0.031795
     49 H22         3.8220   -2.5340   -4.7420 hc        1 MOL      0.031795
     50 N4          5.7150   -2.7580   -1.6150 n         1 MOL     -0.005075
     51 C17         6.9940   -2.2670   -1.1990 c3        1 MOL     -0.295229
     52 C18         7.3130   -0.7640   -1.5440 c         1 MOL      0.516222
     53 O9          8.5070   -0.4150   -1.5630 o         1 MOL     -0.607933
     54 H23         5.0690   -2.9350   -0.8550 hn        1 MOL      0.141670
     55 H24         7.8310   -2.8160   -1.6100 h1        1 MOL      0.107000
     56 H25         6.9440   -2.2100   -0.1120 h1        1 MOL      0.107000
     57 N5          6.3210   -0.0160   -2.0240 n         1 MOL     -0.271750
     58 C19         6.4640    1.3780   -2.5620 c3        1 MOL     -0.036807
     59 C20         6.8220    2.4910   -1.5200 c         1 MOL      0.509660
     60 O10         7.1760    3.6260   -1.9200 o         1 MOL     -0.570554
     61 C21         5.2280    1.7770   -3.4010 c3        1 MOL     -0.227641
     62 C22         3.9740    1.9760   -2.5730 c         1 MOL      0.870719
     63 O11         3.9310    1.5170   -1.3970 o         1 MOL     -0.724554
     64 O12         3.0720    2.6610   -3.0010 o         1 MOL     -0.724554
     65 H26         5.4190   -0.4490   -2.0610 hn        1 MOL      0.298171
     66 H27         7.3560    1.4160   -3.1910 h1        1 MOL      0.088443
     67 H28         5.0230    1.0120   -4.1480 hc        1 MOL      0.052338
     68 H29         5.4190    2.7340   -3.8920 hc        1 MOL      0.052338
     69 N6          6.7080    2.1720   -0.2850 n         1 MOL     -0.292782
     70 C23         7.0910    3.1110    0.7520 c3        1 MOL     -0.052978
     71 C24         5.9690    4.0040    1.2740 c         1 MOL      0.562798
     72 O13         6.2490    4.7760    2.1530 o         1 MOL     -0.606751
     73 H30         6.1420    1.3990    0.0340 hn        1 MOL      0.239074
     74 H31         7.9620    3.6860    0.4220 h1        1 MOL      0.057430
     75 H32         7.4580    2.5540    1.6160 h1        1 MOL      0.057430
     76 N7          4.7100    3.8080    0.8690 n         1 MOL     -0.225351
     77 C25         3.4830    4.4430    1.4730 c3        1 MOL     -0.008222
     78 C26         2.3820    3.4250    1.7010 c         1 MOL      0.560573
     79 O14         2.3780    2.3560    1.0850 o         1 MOL     -0.651830
     80 C27         2.9450    5.5140    0.5380 c3        1 MOL     -0.045849
     81 C28         3.8660    6.7490    0.4370 c3        1 MOL     -0.255702
     82 C29         3.4270    7.6280   -0.6560 c         1 MOL      0.612437
     83 N8          2.6210    8.6210   -0.3730 n         1 MOL     -0.726374
     84 O15         3.7360    7.4820   -1.8320 o         1 MOL     -0.530953
     85 H33         4.5430    3.0290    0.2560 hn        1 MOL      0.136993
     86 H34         3.7290    4.8450    2.4550 h1        1 MOL      0.054774
     87 H35         1.9850    5.8970    0.8910 hc        1 MOL      0.079092
     88 H36         2.7680    5.1030   -0.4510 hc        1 MOL      0.079092
     89 H37         4.8800    6.4690    0.1500 hc        1 MOL      0.077584
     90 H38         3.8530    7.3170    1.3660 hc        1 MOL      0.077584
     91 H39         2.5490    8.8400    0.6040 hn        1 MOL      0.328074
     92 H40         2.3770    9.2780   -1.1040 hn        1 MOL      0.328074
     93 N9          1.4180    3.6250    2.5540 n         1 MOL     -0.473472
     94 C30         0.1960    2.7800    2.7430 c3        1 MOL      0.074037
     95 C31        -0.9180    3.1590    1.7460 c         1 MOL      0.545283
     96 O16        -1.3950    4.2650    1.6410 o         1 MOL     -0.598483
     97 C32        -0.3040    2.6640    4.1860 c3        1 MOL      0.068086
     98 C33        -1.7900    2.2270    4.4820 c3        1 MOL     -0.288645
     99 C34         0.6100    1.6510    4.8870 c3        1 MOL     -0.288645
    100 H41         1.4360    4.5080    3.0450 hn        1 MOL      0.260019
    101 H42         0.5920    1.8400    2.3630 h1        1 MOL      0.186194
    102 H43        -0.2150    3.6530    4.6300 hc        1 MOL      0.005836
    103 H44        -2.4370    3.1020    4.4010 hc        1 MOL      0.075532
    104 H45        -2.1280    1.4350    3.8230 hc        1 MOL      0.075532
    105 H46        -1.9030    1.8440    5.5040 hc        1 MOL      0.075532
    106 H47         0.2980    0.6640    4.5260 hc        1 MOL      0.075532
    107 H48         1.6320    1.9430    4.6790 hc        1 MOL      0.075532
    108 H49         0.5140    1.5580    5.9730 hc        1 MOL      0.075532
    109 N10        -1.2630    2.1700    0.8920 n         1 MOL     -0.190371
    110 C35        -2.3500    2.2800   -0.1260 c3        1 MOL      0.088072
    111 C36        -3.7280    2.0270    0.5530 c         1 MOL      0.227142
    112 O17        -3.8100    1.1900    1.4790 o         1 MOL     -0.344513
    113 C37        -2.0320    1.2600   -1.3020 c3        1 MOL     -0.310891
    114 C38        -3.2450    0.5650   -1.9500 c         1 MOL      0.617420
    115 N11        -3.9310    1.2650   -2.7980 n         1 MOL     -0.644955
    116 O18        -3.7020   -0.5060   -1.6070 o         1 MOL     -0.461496
    117 H50        -0.9400    1.2160    1.0350 hn        1 MOL     -0.069781
    118 H51        -2.2950    3.2640   -0.5930 h1        1 MOL      0.074805
    119 H52        -1.3780    0.4700   -0.9210 hc        1 MOL      0.126975
    120 H53        -1.4930    1.6880   -2.1510 hc        1 MOL      0.126975
    121 H54        -3.7170    2.2280   -3.0250 hn        1 MOL      0.325784
    122 H55        -4.7100    0.7750   -3.2120 hn        1 MOL      0.325784
    123 N12        -4.7560    2.7190    0.1230 n         1 MOL     -0.031079
    124 C39        -6.0420    2.6350    0.8370 c3        1 MOL     -0.094016
    125 C40        -6.7020    1.2610    0.8060 c         1 MOL      0.430531
    126 O19        -7.6730    0.9630    1.5480 o         1 MOL     -0.581647
    127 C41        -6.9430    3.7860    0.2350 c3        1 MOL     -0.056734
    128 C42        -7.4490    3.4340   -1.2000 ca        1 MOL      0.017973
    129 C43        -8.7170    2.8220   -1.3450 ca        1 MOL     -0.205290
    130 C44        -6.6180    3.6870   -2.3150 ca        1 MOL     -0.205290
    131 C45        -9.1150    2.5450   -2.6690 ca        1 MOL     -0.232253
    132 C46        -7.0460    3.3190   -3.5810 ca        1 MOL     -0.232253
    133 C47        -8.2580    2.7610   -3.7900 ca        1 MOL      0.344973
    134 O20        -8.6150    2.4780   -5.0560 oh        1 MOL     -0.521617
    135 H56        -4.5220    3.4870   -0.4710 hn        1 MOL      0.130570
    136 H57        -5.7230    3.0130    1.8060 h1        1 MOL      0.095605
    137 H58        -6.3790    4.7180    0.1460 hc        1 MOL      0.039196
    138 H59        -7.7590    3.9400    0.9440 hc        1 MOL      0.039196
    139 H60        -9.3010    2.4790   -0.5040 ha        1 MOL      0.166177
    140 H61        -5.7070    4.2290   -2.1430 ha        1 MOL      0.166177
    141 H62       -10.0060    1.9730   -2.8510 ha        1 MOL      0.132935
    142 H63        -6.3930    3.5660   -4.3920 ha        1 MOL      0.132935
    143 H64        -9.4090    1.9400   -5.1560 ho        1 MOL      0.402295
    144 N13        -6.2090    0.3120    0.0750 n         1 MOL      0.072924
    145 C48        -6.6090   -1.1690    0.2380 c3        1 MOL     -0.136305
    146 C49        -5.6480   -2.0280    1.1770 c         1 MOL      0.209057
    147 O21        -6.1560   -3.0050    1.7430 o         1 MOL     -0.476342
    148 C50        -6.8990   -1.8970   -1.1230 c3        1 MOL      0.296507
    149 C51        -8.0030   -1.1720   -1.9280 c3        1 MOL     -0.445905
    150 C52        -8.1330   -1.9070   -3.2320 c         1 MOL      0.753482
    151 O22        -7.2600   -1.9690   -4.0770 o         1 MOL     -0.750590
    152 O23        -9.2090   -2.5730   -3.3870 o         1 MOL     -0.750590
    153 H65        -5.3370    0.5210   -0.3860 hn        1 MOL     -0.110705
    154 H66        -7.5480   -1.1910    0.7840 h1        1 MOL      0.129230
    155 H67        -7.3260   -2.8880   -0.9440 hc        1 MOL     -0.010717
    156 H68        -5.9740   -1.9420   -1.6840 hc        1 MOL     -0.010717
    157 H69        -7.7470   -0.1550   -2.2240 hc        1 MOL      0.077476
    158 H70        -8.9250   -1.0910   -1.3610 hc        1 MOL      0.077476
    159 N14        -4.3710   -1.6800    1.1980 n         1 MOL     -0.198966
    160 C53        -3.4860   -2.2650    2.2350 c3        1 MOL      0.032205
    161 C54        -3.9670   -1.8790    3.6000 c         1 MOL      0.383266
    162 O24        -3.7590   -2.6720    4.5450 o         1 MOL     -0.574639
    163 C55        -2.1020   -1.5650    2.0950 c3        1 MOL     -0.557370
    164 C56        -1.3070   -2.0490    0.8980 c3        1 MOL      0.852355
    165 C57         0.0230   -1.3270    0.6700 c         1 MOL      0.167027
    166 O25         0.8210   -1.7730   -0.1670 o         1 MOL     -0.521462
    167 O26         0.3080   -0.2870    1.3020 o         1 MOL     -0.521462
    168 H71        -3.9960   -0.9140    0.6530 hn        1 MOL      0.265388
    169 H72        -3.3930   -3.3440    2.1700 h1        1 MOL      0.119913
    170 H73        -1.4820   -1.9000    2.9340 hc        1 MOL      0.148705
    171 H74        -2.0920   -0.4820    2.0560 hc        1 MOL      0.148705
    172 H75        -1.8790   -1.8840   -0.0150 hc        1 MOL     -0.174383
    173 H76        -1.2230   -3.1380    0.9490 hc        1 MOL     -0.174383
    174 N15        -4.5540   -0.7090    3.8330 n         1 MOL      0.037526
    175 C58        -5.1920   -0.2900    5.1270 c3        1 MOL     -0.223616
    176 H77        -4.4180   -0.1170    5.8740 h1        1 MOL      0.083514
    177 H78        -5.7590    0.6290    4.9720 h1        1 MOL      0.083514
    178 H79        -5.8620   -1.0760    5.4740 h1        1 MOL      0.083514
    179 H80        -4.5120   -0.0290    3.0900 hn        1 MOL      0.078513
    180 Ca1         2.6250   -0.0930    0.0700 Ca        1 MOL      1.734098
    181 O27         3.0140   -0.2420    2.6850 oh        1 MOL     -0.841855
    182 H81         3.6270   -0.2230    3.4090 ho        1 MOL      0.401128
    183 H82         2.2280   -0.6640    3.0290 ho        1 MOL      0.401128
    184 O28         5.3470   -0.6190    0.7070 oh        1 MOL     -0.841855
    185 H83         5.2710   -1.5470    0.9440 ho        1 MOL      0.401128
    186 H84         5.8380   -0.2260    1.4330 ho        1 MOL      0.401128
    187 O29         1.0880    0.9860   -1.9300 oh        1 MOL     -0.841855
    188 H85         1.6170    1.7670   -2.0710 ho        1 MOL      0.401128
    189 H86         1.2190    0.4670   -2.7300 ho        1 MOL      0.401128
@<TRIPOS>BOND
     1    1    2 1   
     2    1    4 1   
     3    1    5 1   
     4    1    6 1   
     5    2    3 2   
     6    2    7 1   
     7    7    8 1   
     8    7   15 1   
     9    8    9 1   
    10    8   11 1   
    11    8   16 1   
    12    9   10 2   
    13    9   19 1   
    14   11   12 1   
    15   11   17 1   
    16   11   18 1   
    17   12   13 1   
    18   12   14 1   
    19   19   20 1   
    20   19   27 1   
    21   20   21 1   
    22   20   23 1   
    23   20   28 1   
    24   21   22 2   
    25   21   38 1   
    26   23   24 1   
    27   23   25 1   
    28   23   29 1   
    29   24   26 1   
    30   24   30 1   
    31   24   31 1   
    32   25   32 1   
    33   25   33 1   
    34   25   34 1   
    35   26   35 1   
    36   26   36 1   
    37   26   37 1   
    38   38   39 1   
    39   38   46 1   
    40   39   40 1   
    41   39   42 1   
    42   39   47 1   
    43   40   41 2   
    44   40   50 1   
    45   42   43 1   
    46   42   48 1   
    47   42   49 1   
    48   43   44 1   
    49   43   45 1   
    50   50   51 1   
    51   50   54 1   
    52   51   52 1   
    53   51   55 1   
    54   51   56 1   
    55   52   53 2   
    56   52   57 1   
    57   57   58 1   
    58   57   65 1   
    59   58   59 1   
    60   58   61 1   
    61   58   66 1   
    62   59   60 2   
    63   59   69 1   
    64   61   62 1   
    65   61   67 1   
    66   61   68 1   
    67   62   63 1   
    68   62   64 1   
    69   69   70 1   
    70   69   73 1   
    71   70   71 1   
    72   70   74 1   
    73   70   75 1   
    74   71   72 2   
    75   71   76 1   
    76   76   77 1   
    77   76   85 1   
    78   77   78 1   
    79   77   80 1   
    80   77   86 1   
    81   78   79 2   
    82   78   93 1   
    83   80   81 1   
    84   80   87 1   
    85   80   88 1   
    86   81   82 1   
    87   81   89 1   
    88   81   90 1   
    89   82   83 1   
    90   82   84 2   
    91   83   91 1   
    92   83   92 1   
    93   93   94 1   
    94   93  100 1   
    95   94   95 1   
    96   94   97 1   
    97   94  101 1   
    98   95   96 2   
    99   95  109 1   
   100   97   98 1   
   101   97   99 1   
   102   97  102 1   
   103   98  103 1   
   104   98  104 1   
   105   98  105 1   
   106   99  106 1   
   107   99  107 1   
   108   99  108 1   
   109  109  110 1   
   110  109  117 1   
   111  110  111 1   
   112  110  113 1   
   113  110  118 1   
   114  111  112 2   
   115  111  123 1   
   116  113  114 1   
   117  113  119 1   
   118  113  120 1   
   119  114  115 1   
   120  114  116 2   
   121  115  121 1   
   122  115  122 1   
   123  123  124 1   
   124  123  135 1   
   125  124  125 1   
   126  124  127 1   
   127  124  136 1   
   128  125  126 2   
   129  125  144 1   
   130  127  128 1   
   131  127  137 1   
   132  127  138 1   
   133  128  129 ar  
   134  128  130 ar  
   135  129  131 ar  
   136  129  139 1   
   137  130  132 ar  
   138  130  140 1   
   139  131  133 ar  
   140  131  141 1   
   141  132  133 ar  
   142  132  142 1   
   143  133  134 1   
   144  134  143 1   
   145  144  145 1   
   146  144  153 1   
   147  145  146 1   
   148  145  148 1   
   149  145  154 1   
   150  146  147 2   
   151  146  159 1   
   152  148  149 1   
   153  148  155 1   
   154  148  156 1   
   155  149  150 1   
   156  149  157 1   
   157  149  158 1   
   158  150  151 1   
   159  150  152 1   
   160  159  160 1   
   161  159  168 1   
   162  160  161 1   
   163  160  163 1   
   164  160  169 1   
   165  161  162 2   
   166  161  174 1   
   167  163  164 1   
   168  163  170 1   
   169  163  171 1   
   170  164  165 1   
   171  164  172 1   
   172  164  173 1   
   173  165  166 1   
   174  165  167 1   
   175  174  175 1   
   176  174  179 1   
   177  175  176 1   
   178  175  177 1   
   179  175  178 1   
   180  181  182 1   
   181  181  183 1   
   182  184  185 1   
   183  184  186 1   
   184  187  188 1   
   185  187  189 1   
@<TRIPOS>SUBSTRUCTURE
     1 MOL         1 TEMP              0 ****  ****    0 ROOT
