@<TRIPOS>MOLECULE
MOL
  189   185     1     0     0
SMALL
resp


@<TRIPOS>ATOM
      1 C1         -0.0000   -2.6730    6.7370 c3        1 MOL     -0.421793
      2 C2          0.6160   -2.4690    5.3340 c         1 MOL      0.735022
      3 O1          0.8890   -1.3090    4.9530 o         1 MOL     -0.610823
      4 H1         -0.3360   -3.7050    6.8390 hc        1 MOL      0.105306
      5 H2          0.7490   -2.4580    7.4990 hc        1 MOL      0.105306
      6 H3         -0.8500   -2.0020    6.8620 hc        1 MOL      0.105306
      7 N1          0.7250   -3.5650    4.5670 n         1 MOL     -0.574784
      8 C3          1.4060   -3.5220    3.2550 c3        1 MOL      0.205503
      9 C4          1.0430   -4.6940    2.3480 c         1 MOL      0.674622
     10 O2          0.6170   -5.7030    2.8120 o         1 MOL     -0.625864
     11 C5          2.9530   -3.5290    3.4630 c3        1 MOL     -0.428459
     12 C6          3.7410   -2.8560    2.2210 c         1 MOL      0.823427
     13 O3          3.1040   -2.5910    1.1890 o         1 MOL     -0.714583
     14 O4          4.9730   -2.6000    2.2670 o         1 MOL     -0.714583
     15 H4          0.0770   -4.3220    4.7320 hn        1 MOL      0.307384
     16 H5          1.0710   -2.6060    2.7790 h1        1 MOL      0.027213
     17 H6          3.2960   -4.5530    3.5820 hc        1 MOL      0.100540
     18 H7          3.2090   -2.9800    4.3740 hc        1 MOL      0.100540
     19 N2          1.1800   -4.4800    1.0390 n         1 MOL     -0.413506
     20 C7          0.9000   -5.4990   -0.0340 c3        1 MOL     -0.048780
     21 C8          2.0300   -5.6870   -1.0370 c         1 MOL      0.564738
     22 O5          2.3020   -6.8090   -1.5470 o         1 MOL     -0.578930
     23 C9         -0.4940   -4.9800   -0.6020 c3        1 MOL      0.147449
     24 C10        -1.7110   -5.2820    0.2920 c3        1 MOL      0.024591
     25 C11        -0.6270   -5.7490   -1.9480 c3        1 MOL     -0.476874
     26 C12        -3.0480   -4.5260    0.0380 c3        1 MOL     -0.104855
     27 H8          1.3900   -3.5510    0.7120 hn        1 MOL      0.192973
     28 H9          0.8520   -6.4240    0.5370 h1        1 MOL      0.082026
     29 H10        -0.5320   -3.9200   -0.8550 hc        1 MOL      0.084984
     30 H11        -1.4670   -4.9920    1.3090 hc        1 MOL     -0.018042
     31 H12        -1.9150   -6.3540    0.3070 hc        1 MOL     -0.018042
     32 H13         0.1400   -5.4300   -2.6540 hc        1 MOL      0.120051
     33 H14        -0.7270   -6.8320   -1.8440 hc        1 MOL      0.120051
     34 H15        -1.5720   -5.3450   -2.3010 hc        1 MOL      0.120051
     35 H16        -3.4110   -4.7050   -0.9760 hc        1 MOL      0.036553
     36 H17        -3.7930   -4.8870    0.7570 hc        1 MOL      0.036553
     37 H18        -2.8900   -3.4620    0.2100 hc        1 MOL      0.036553
     38 N3          2.6920   -4.5700   -1.3700 n         1 MOL     -0.431564
     39 C13         3.5150   -4.4900   -2.4900 c3        1 MOL      0.033205
     40 C14         4.9100   -3.8780   -2.1700 c         1 MOL      0.397576
     41 O6          5.7260   -3.6480   -3.0740 o         1 MOL     -0.547509
     42 C15         2.7730   -3.6640   -3.5370 c3        1 MOL     -0.182839
     43 C16         2.4310   -2.2170   -3.0720 c         1 MOL      0.723334
     44 O7          2.8980   -1.6410   -2.0200 o         1 MOL     -0.670939
     45 O8          1.5890   -1.5810   -3.8060 o         1 MOL     -0.670939
     46 H19         2.4230   -3.6990   -0.9200 hn        1 MOL      0.288702
     47 H20         3.7120   -5.4520   -2.9550 h1        1 MOL      0.113043
     48 H21         1.8550   -4.2360   -3.6500 hc        1 MOL      0.056282
     49 H22         3.2940   -3.5610   -4.4850 hc        1 MOL      0.056282
     50 N4          5.1970   -3.5380   -0.8900 n         1 MOL     -0.220473
     51 C17         6.5700   -3.0750   -0.5520 c3        1 MOL     -0.300092
     52 C18         7.0580   -1.8640   -1.1740 c         1 MOL      0.586284
     53 O9          8.2050   -1.4890   -0.9980 o         1 MOL     -0.636358
     54 H23         4.4480   -3.4670   -0.2150 hn        1 MOL      0.166381
     55 H24         7.3230   -3.8430   -0.7450 h1        1 MOL      0.135536
     56 H25         6.4700   -2.8770    0.5170 h1        1 MOL      0.135536
     57 N5          6.2600   -1.0780   -1.8760 n         1 MOL     -0.205219
     58 C19         6.7370    0.1200   -2.6060 c3        1 MOL      0.043411
     59 C20         7.3850    1.2610   -1.7390 c         1 MOL      0.502829
     60 O10         8.2440    1.9370   -2.3130 o         1 MOL     -0.584480
     61 C21         5.5500    0.6850   -3.4160 c3        1 MOL     -0.407188
     62 C22         4.2860    1.1690   -2.6460 c         1 MOL      0.809662
     63 O11         4.0610    0.9550   -1.4610 o         1 MOL     -0.722625
     64 O12         3.4260    1.8250   -3.2710 o         1 MOL     -0.722625
     65 H26         5.3010   -1.3700   -1.9980 hn        1 MOL      0.230661
     66 H27         7.6050   -0.1710   -3.2100 h1        1 MOL      0.060375
     67 H28         5.2330   -0.0220   -4.1830 hc        1 MOL      0.105808
     68 H29         5.8950    1.6210   -3.8580 hc        1 MOL      0.105808
     69 N6          6.8470    1.4430   -0.5390 n         1 MOL     -0.178803
     70 C23         7.2300    2.3400    0.4860 c3        1 MOL     -0.143142
     71 C24         6.2630    3.4870    0.7300 c         1 MOL      0.565878
     72 O13         6.8560    4.4260    1.2800 o         1 MOL     -0.606068
     73 H30         6.0910    0.8090   -0.3480 hn        1 MOL      0.180679
     74 H31         8.1720    2.8150    0.2030 h1        1 MOL      0.077972
     75 H32         7.3500    1.8800    1.4590 h1        1 MOL      0.077972
     76 N7          5.0060    3.3650    0.3760 n         1 MOL     -0.281030
     77 C25         3.9620    4.3580    0.7680 c3        1 MOL      0.064757
     78 C26         2.7030    3.5800    1.1340 c         1 MOL      0.581865
     79 O14         2.6900    2.3610    0.9620 o         1 MOL     -0.529647
     80 C27         3.6350    5.4410   -0.3030 c3        1 MOL      0.047510
     81 C28         4.8440    6.3060   -0.5990 c3        1 MOL     -0.335598
     82 C29         4.4690    7.4250   -1.5730 c         1 MOL      0.666553
     83 N8          4.5980    7.1220   -2.8660 n         1 MOL     -0.817076
     84 O15         4.0530    8.4880   -1.1590 o         1 MOL     -0.572301
     85 H33         4.7060    2.4750    0.0130 hn        1 MOL      0.138050
     86 H34         4.2730    4.8560    1.6810 h1        1 MOL      0.024042
     87 H35         2.8550    6.0870    0.0940 hc        1 MOL      0.051486
     88 H36         3.3300    4.9560   -1.2260 hc        1 MOL      0.051486
     89 H37         5.6450    5.6620   -0.9470 hc        1 MOL      0.096788
     90 H38         5.1890    6.6940    0.3570 hc        1 MOL      0.096788
     91 H39         4.9940    6.2130   -3.0270 hn        1 MOL      0.378576
     92 H40         4.2960    7.7490   -3.5990 hn        1 MOL      0.378576
     93 N9          1.6050    4.2580    1.5590 n         1 MOL     -0.608077
     94 C30         0.2230    3.7220    1.7760 c3        1 MOL      0.054864
     95 C31        -0.5410    3.9010    0.5200 c         1 MOL      0.530144
     96 O16        -0.4700    4.9810   -0.0060 o         1 MOL     -0.596030
     97 C32        -0.4110    4.2730    3.0570 c3        1 MOL      0.322605
     98 C33        -1.4990    3.3500    3.6200 c3        1 MOL     -0.363624
     99 C34         0.5620    4.4630    4.2510 c3        1 MOL     -0.363624
    100 H41         1.6850    5.2610    1.6260 hn        1 MOL      0.299099
    101 H42         0.4090    2.6520    1.9100 h1        1 MOL      0.092183
    102 H43        -0.9300    5.2180    2.8770 hc        1 MOL     -0.037285
    103 H44        -2.4150    3.4590    3.0400 hc        1 MOL      0.079798
    104 H45        -1.1850    2.3110    3.6560 hc        1 MOL      0.079798
    105 H46        -1.7360    3.6710    4.6420 hc        1 MOL      0.079798
    106 H47         1.1220    5.3820    4.0840 hc        1 MOL      0.079798
    107 H48         0.0620    4.7420    5.1800 hc        1 MOL      0.079798
    108 H49         1.2490    3.6190    4.3400 hc        1 MOL      0.079798
    109 N10        -1.4250    2.9670    0.1790 n         1 MOL     -0.173222
    110 C35        -2.6050    3.1930   -0.6810 c3        1 MOL     -0.066114
    111 C36        -3.8590    2.6860   -0.0230 c         1 MOL      0.210299
    112 O17        -3.8470    2.0730    1.0360 o         1 MOL     -0.167669
    113 C37        -2.2840    2.6200   -2.0530 c3        1 MOL     -0.105796
    114 C38        -2.6060    1.1590   -2.3570 c         1 MOL      0.582649
    115 N11        -1.6910    0.2960   -1.9470 n         1 MOL     -0.615552
    116 O18        -3.6980    0.8110   -2.7930 o         1 MOL     -0.590318
    117 H50        -1.1710    2.0560    0.5420 hn        1 MOL      0.159046
    118 H51        -2.7520    4.2680   -0.7920 h1        1 MOL      0.095485
    119 H52        -1.2600    2.8020   -2.3650 hc        1 MOL      0.054239
    120 H53        -2.8500    3.1100   -2.8390 hc        1 MOL      0.054239
    121 H54        -0.7350    0.5230   -1.7140 hn        1 MOL      0.348645
    122 H55        -1.9830   -0.6600   -2.0150 hn        1 MOL      0.348645
    123 N12        -5.0590    2.9350   -0.6370 n         1 MOL     -0.285392
    124 C39        -6.3280    2.8630    0.0060 c3        1 MOL      0.021487
    125 C40        -6.7810    1.4880    0.4760 c         1 MOL      0.350683
    126 O19        -7.3400    1.3380    1.5430 o         1 MOL     -0.509308
    127 C41        -7.2960    3.4650   -0.8930 c3        1 MOL     -0.087508
    128 C42        -7.9200    2.5790   -1.9890 ca        1 MOL     -0.072817
    129 C43        -9.0190    1.8320   -1.6150 ca        1 MOL     -0.059628
    130 C44        -7.2330    2.2850   -3.2130 ca        1 MOL     -0.059628
    131 C45        -9.6810    0.9800   -2.5150 ca        1 MOL     -0.422535
    132 C46        -7.8530    1.2900   -4.0740 ca        1 MOL     -0.422535
    133 C47        -9.0840    0.6580   -3.7030 ca        1 MOL      0.493937
    134 O20        -9.7050   -0.1830   -4.6010 oh        1 MOL     -0.475319
    135 H56        -4.9830    3.3290   -1.5600 hn        1 MOL      0.268038
    136 H57        -6.1920    3.5090    0.8670 h1        1 MOL      0.089682
    137 H58        -6.8320    4.3560   -1.3120 hc        1 MOL      0.032251
    138 H59        -8.1460    3.8390   -0.3230 hc        1 MOL      0.032251
    139 H60        -9.3180    1.8770   -0.5760 ha        1 MOL      0.128637
    140 H61        -6.3060    2.7790   -3.4390 ha        1 MOL      0.128637
    141 H62       -10.4960    0.3480   -2.2060 ha        1 MOL      0.191968
    142 H63        -7.4070    1.0690   -5.0260 ha        1 MOL      0.191968
    143 H64       -10.3610   -0.6860   -4.1030 ho        1 MOL      0.324585
    144 N13        -6.3390    0.4010   -0.2450 n         1 MOL     -0.180054
    145 C48        -6.5200   -1.0170    0.1710 c3        1 MOL     -0.157698
    146 C49        -5.7870   -1.3550    1.5070 c         1 MOL      0.439130
    147 O21        -5.9940   -2.3620    2.1390 o         1 MOL     -0.540597
    148 C50        -6.0240   -1.8740   -0.9670 c3        1 MOL     -0.110354
    149 C51        -6.6120   -1.6480   -2.4020 c3        1 MOL     -0.207913
    150 C52        -6.1140   -2.7660   -3.3020 c         1 MOL      0.687869
    151 O22        -4.8900   -2.7020   -3.6310 o         1 MOL     -0.728122
    152 O23        -6.8710   -3.7330   -3.5870 o         1 MOL     -0.728122
    153 H65        -5.9140    0.5580   -1.1450 hn        1 MOL      0.302093
    154 H66        -7.5630   -1.2540    0.3660 h1        1 MOL      0.104814
    155 H67        -6.1740   -2.9140   -0.6930 hc        1 MOL      0.083132
    156 H68        -4.9390   -1.8590   -1.0730 hc        1 MOL      0.083132
    157 H69        -6.2800   -0.6850   -2.7660 hc        1 MOL      0.053126
    158 H70        -7.6900   -1.5940   -2.5230 hc        1 MOL      0.053126
    159 N14        -4.8130   -0.5090    1.8970 n         1 MOL     -0.105917
    160 C53        -3.9080   -0.7550    3.0580 c3        1 MOL     -0.016770
    161 C54        -4.2540    0.3100    4.0990 c         1 MOL      0.380228
    162 O24        -4.2060   -0.0110    5.2890 o         1 MOL     -0.567641
    163 C55        -2.4210   -0.4750    2.6900 c3        1 MOL     -0.045001
    164 C56        -1.9130   -1.3070    1.4900 c3        1 MOL     -0.125714
    165 C57        -0.5090   -0.9470    1.0230 c         1 MOL      0.955527
    166 O25        -0.2530    0.2250    0.7190 o         1 MOL     -0.844640
    167 O26         0.3280   -1.8410    0.7640 o         1 MOL     -0.844640
    168 H71        -4.6910    0.3380    1.3680 hn        1 MOL     -0.006675
    169 H72        -4.0930   -1.7110    3.5340 h1        1 MOL      0.112192
    170 H73        -1.8000   -0.7160    3.5450 hc        1 MOL      0.042586
    171 H74        -2.2150    0.5730    2.4980 hc        1 MOL      0.042586
    172 H75        -2.4750   -1.1840    0.5600 hc        1 MOL      0.024511
    173 H76        -1.8730   -2.3520    1.7950 hc        1 MOL      0.024511
    174 N15        -4.8510    1.4640    3.7670 n         1 MOL     -0.027709
    175 C58        -5.3760    2.4360    4.6620 c3        1 MOL     -0.168805
    176 H77        -4.6770    3.2690    4.7450 h1        1 MOL      0.056246
    177 H78        -6.3320    2.8010    4.2830 h1        1 MOL      0.056246
    178 H79        -5.5220    1.9860    5.6440 h1        1 MOL      0.056246
    179 H80        -4.9500    1.6990    2.7900 hn        1 MOL      0.096441
    180 Ca1         2.5190   -0.2860    0.2100 Ca        1 MOL      1.748342
    181 O27         2.5590   -0.1080    2.9470 oh        1 MOL     -0.954614
    182 H81         1.9770   -0.5340    3.5780 ho        1 MOL      0.449176
    183 H82         3.0430    0.5460    3.4470 ho        1 MOL      0.449176
    184 O28         4.9820   -0.0640    1.1990 oh        1 MOL     -0.954614
    185 H83         5.2400    0.3230    2.0300 ho        1 MOL      0.449176
    186 H84         5.2150   -0.9930    1.2820 ho        1 MOL      0.449176
    187 O29         1.3070    0.4610   -2.1300 oh        1 MOL     -0.954614
    188 H85         1.4880   -0.3080   -2.6720 ho        1 MOL      0.449176
    189 H86         1.9700    1.0960   -2.3830 ho        1 MOL      0.449176
@<TRIPOS>BOND
     1    1    2 1   
     2    1    4 1   
     3    1    5 1   
     4    1    6 1   
     5    2    3 2   
     6    2    7 1   
     7    7    8 1   
     8    7   15 1   
     9    8    9 1   
    10    8   11 1   
    11    8   16 1   
    12    9   10 2   
    13    9   19 1   
    14   11   12 1   
    15   11   17 1   
    16   11   18 1   
    17   12   13 1   
    18   12   14 1   
    19   19   20 1   
    20   19   27 1   
    21   20   21 1   
    22   20   23 1   
    23   20   28 1   
    24   21   22 2   
    25   21   38 1   
    26   23   24 1   
    27   23   25 1   
    28   23   29 1   
    29   24   26 1   
    30   24   30 1   
    31   24   31 1   
    32   25   32 1   
    33   25   33 1   
    34   25   34 1   
    35   26   35 1   
    36   26   36 1   
    37   26   37 1   
    38   38   39 1   
    39   38   46 1   
    40   39   40 1   
    41   39   42 1   
    42   39   47 1   
    43   40   41 2   
    44   40   50 1   
    45   42   43 1   
    46   42   48 1   
    47   42   49 1   
    48   43   44 1   
    49   43   45 1   
    50   50   51 1   
    51   50   54 1   
    52   51   52 1   
    53   51   55 1   
    54   51   56 1   
    55   52   53 2   
    56   52   57 1   
    57   57   58 1   
    58   57   65 1   
    59   58   59 1   
    60   58   61 1   
    61   58   66 1   
    62   59   60 2   
    63   59   69 1   
    64   61   62 1   
    65   61   67 1   
    66   61   68 1   
    67   62   63 1   
    68   62   64 1   
    69   69   70 1   
    70   69   73 1   
    71   70   71 1   
    72   70   74 1   
    73   70   75 1   
    74   71   72 2   
    75   71   76 1   
    76   76   77 1   
    77   76   85 1   
    78   77   78 1   
    79   77   80 1   
    80   77   86 1   
    81   78   79 2   
    82   78   93 1   
    83   80   81 1   
    84   80   87 1   
    85   80   88 1   
    86   81   82 1   
    87   81   89 1   
    88   81   90 1   
    89   82   83 1   
    90   82   84 2   
    91   83   91 1   
    92   83   92 1   
    93   93   94 1   
    94   93  100 1   
    95   94   95 1   
    96   94   97 1   
    97   94  101 1   
    98   95   96 2   
    99   95  109 1   
   100   97   98 1   
   101   97   99 1   
   102   97  102 1   
   103   98  103 1   
   104   98  104 1   
   105   98  105 1   
   106   99  106 1   
   107   99  107 1   
   108   99  108 1   
   109  109  110 1   
   110  109  117 1   
   111  110  111 1   
   112  110  113 1   
   113  110  118 1   
   114  111  112 2   
   115  111  123 1   
   116  113  114 1   
   117  113  119 1   
   118  113  120 1   
   119  114  115 1   
   120  114  116 2   
   121  115  121 1   
   122  115  122 1   
   123  123  124 1   
   124  123  135 1   
   125  124  125 1   
   126  124  127 1   
   127  124  136 1   
   128  125  126 2   
   129  125  144 1   
   130  127  128 1   
   131  127  137 1   
   132  127  138 1   
   133  128  129 ar  
   134  128  130 ar  
   135  129  131 ar  
   136  129  139 1   
   137  130  132 ar  
   138  130  140 1   
   139  131  133 ar  
   140  131  141 1   
   141  132  133 ar  
   142  132  142 1   
   143  133  134 1   
   144  134  143 1   
   145  144  145 1   
   146  144  153 1   
   147  145  146 1   
   148  145  148 1   
   149  145  154 1   
   150  146  147 2   
   151  146  159 1   
   152  148  149 1   
   153  148  155 1   
   154  148  156 1   
   155  149  150 1   
   156  149  157 1   
   157  149  158 1   
   158  150  151 1   
   159  150  152 1   
   160  159  160 1   
   161  159  168 1   
   162  160  161 1   
   163  160  163 1   
   164  160  169 1   
   165  161  162 2   
   166  161  174 1   
   167  163  164 1   
   168  163  170 1   
   169  163  171 1   
   170  164  165 1   
   171  164  172 1   
   172  164  173 1   
   173  165  166 1   
   174  165  167 1   
   175  174  175 1   
   176  174  179 1   
   177  175  176 1   
   178  175  177 1   
   179  175  178 1   
   180  181  182 1   
   181  181  183 1   
   182  184  185 1   
   183  184  186 1   
   184  187  188 1   
   185  187  189 1   
@<TRIPOS>SUBSTRUCTURE
     1 MOL         1 TEMP              0 ****  ****    0 ROOT
