@<TRIPOS>MOLECULE
MOL
  189   185     1     0     0
SMALL
resp


@<TRIPOS>ATOM
      1 C1         -0.1040    0.7900    6.6760 c3        1 MOL     -0.357554
      2 C2         -0.4830    1.1960    5.1790 c         1 MOL      0.762736
      3 O1          0.3010    1.7870    4.4350 o         1 MOL     -0.630747
      4 H1          0.4380    1.6110    7.1480 hc        1 MOL      0.092667
      5 H2         -1.0140    0.5850    7.2390 hc        1 MOL      0.092667
      6 H3          0.5250   -0.1000    6.6640 hc        1 MOL      0.092667
      7 N1         -1.6610    0.8360    4.7120 n         1 MOL     -0.703647
      8 C3         -2.0260    0.9920    3.2540 c3        1 MOL      0.178939
      9 C4         -2.0900    2.4710    2.8890 c         1 MOL      0.627955
     10 O2         -2.7690    3.2240    3.6230 o         1 MOL     -0.563909
     11 C5         -3.3170    0.2820    2.9220 c3        1 MOL     -0.459235
     12 C6         -3.9160    0.4440    1.4970 c         1 MOL      0.823510
     13 O3         -5.0400   -0.0770    1.2740 o         1 MOL     -0.714496
     14 O4         -3.2530    0.8780    0.5520 o         1 MOL     -0.714496
     15 H4         -2.2880    0.4430    5.3880 hn        1 MOL      0.362022
     16 H5         -1.2310    0.4640    2.7210 h1        1 MOL      0.064447
     17 H6         -4.0000    0.6590    3.6890 hc        1 MOL      0.125568
     18 H7         -3.1450   -0.7900    2.9770 hc        1 MOL      0.125568
     19 N2         -1.4050    2.9050    1.8140 n         1 MOL     -0.165499
     20 C7         -1.1440    4.3500    1.7070 c3        1 MOL     -0.256455
     21 C8         -2.1490    5.0270    0.7280 c         1 MOL      0.667985
     22 O5         -2.5140    6.1140    1.1750 o         1 MOL     -0.609947
     23 C9          0.3050    4.6510    1.3320 c3        1 MOL      0.117184
     24 C10         0.6730    6.1600    1.3940 c3        1 MOL     -0.238245
     25 C11         2.1130    6.2150    0.8990 c3        1 MOL      0.106806
     26 C12         2.9040    7.4750    1.1680 c3        1 MOL      0.004121
     27 N3          2.2800    8.5950    0.3300 n4        1 MOL     -0.430267
     28 H8         -1.0520    2.2490    1.1410 hn        1 MOL     -0.013882
     29 H9         -1.1910    4.7430    2.7230 h1        1 MOL      0.136067
     30 H10         0.4580    4.4100    0.2840 hc        1 MOL      0.086257
     31 H11         1.0890    4.1090    1.8660 hc        1 MOL      0.086257
     32 H12         0.7800    6.5240    2.4210 hc        1 MOL      0.062255
     33 H13         0.0570    6.7880    0.7550 hc        1 MOL      0.062255
     34 H14         2.0680    6.0470   -0.1820 hc        1 MOL     -0.008697
     35 H15         2.6980    5.4210    1.3660 hc        1 MOL     -0.008697
     36 H16         3.9430    7.4120    0.8640 hx        1 MOL      0.092382
     37 H17         2.8810    7.8540    2.1960 hx        1 MOL      0.092382
     38 H18         2.8130    9.4380    0.4780 hn        1 MOL      0.341438
     39 H19         2.2470    8.2550   -0.6180 hn        1 MOL      0.341438
     40 H20         1.3730    8.7480    0.7400 hn        1 MOL      0.341438
     41 N4         -2.7090    4.2400   -0.1590 n         1 MOL     -0.544244
     42 C13        -3.7070    4.6890   -1.2370 c3        1 MOL      0.099709
     43 C14        -4.9780    3.9140   -1.1030 c         1 MOL      0.386894
     44 O6         -5.8480    4.0720   -2.0050 o         1 MOL     -0.526947
     45 C15        -2.9620    4.6090   -2.5670 c3        1 MOL     -0.309025
     46 C16        -2.3860    3.2100   -2.8780 c         1 MOL      0.764432
     47 O7         -2.5620    2.2710   -2.1150 o         1 MOL     -0.706819
     48 O8         -1.4970    3.0830   -3.7870 o         1 MOL     -0.706819
     49 H21        -2.3290    3.3070   -0.2720 hn        1 MOL      0.406476
     50 H22        -3.8610    5.7640   -1.1290 h1        1 MOL      0.088615
     51 H23        -2.1900    5.3680   -2.6840 hc        1 MOL      0.083099
     52 H24        -3.6540    4.8580   -3.3710 hc        1 MOL      0.083099
     53 N5         -5.1580    3.0710   -0.1190 n         1 MOL     -0.112036
     54 C17        -6.4870    2.5400    0.2720 c3        1 MOL     -0.373144
     55 C18        -7.0960    1.4660   -0.6640 c         1 MOL      0.641106
     56 O9         -8.2930    1.5250   -0.8710 o         1 MOL     -0.568638
     57 H25        -4.2940    2.7870    0.3240 hn        1 MOL      0.154103
     58 H26        -7.1950    3.3730    0.2720 h1        1 MOL      0.154506
     59 H27        -6.2240    2.0710    1.2220 h1        1 MOL      0.154506
     60 N6         -6.2650    0.6500   -1.3490 n         1 MOL     -0.283609
     61 C19        -6.8700   -0.4330   -2.2340 c3        1 MOL     -0.018704
     62 C20        -7.3510   -1.6290   -1.4050 c         1 MOL      0.367370
     63 O10        -8.0650   -2.5140   -1.9130 o         1 MOL     -0.527733
     64 C21        -5.9870   -0.8470   -3.3950 c3        1 MOL     -0.209148
     65 C22        -4.5210   -0.9910   -2.9830 c         1 MOL      0.825234
     66 O11        -4.2890   -1.7340   -2.0760 o         1 MOL     -0.743785
     67 O12        -3.6760   -0.4390   -3.6810 o         1 MOL     -0.743785
     68 H28        -5.2750    0.8500   -1.2520 hn        1 MOL      0.176028
     69 H29        -7.7980   -0.1040   -2.7070 h1        1 MOL      0.114406
     70 H30        -6.0710   -0.1840   -4.2550 hc        1 MOL      0.066264
     71 H31        -6.2710   -1.8470   -3.7290 hc        1 MOL      0.066264
     72 N7         -6.8770   -1.7260   -0.1830 n         1 MOL     -0.177643
     73 C23        -7.0720   -2.9440    0.5930 c3        1 MOL     -0.079433
     74 C24        -6.0120   -4.0140    0.5450 c         1 MOL      0.513276
     75 O13        -6.2190   -5.0810    1.1150 o         1 MOL     -0.578271
     76 H32        -6.4510   -0.9070    0.2470 hn        1 MOL      0.228184
     77 H33        -8.0360   -3.3980    0.3700 h1        1 MOL      0.067743
     78 H34        -7.1890   -2.6080    1.6280 h1        1 MOL      0.067743
     79 N8         -4.8840   -3.6440   -0.0130 n         1 MOL     -0.111774
     80 C25        -3.5850   -4.3150    0.0930 c3        1 MOL     -0.381485
     81 C26        -2.3350   -3.4310    0.4620 c         1 MOL      0.908977
     82 O14        -2.3920   -2.2240    0.2240 o         1 MOL     -0.738230
     83 C27        -3.2250   -4.9830   -1.2400 c3        1 MOL      0.523535
     84 C28        -3.8900   -6.3870   -1.4310 c3        1 MOL     -0.480449
     85 O15        -3.4880   -4.2000   -2.4170 oh        1 MOL     -0.665352
     86 H35        -4.8930   -2.7200   -0.4210 hn        1 MOL      0.185847
     87 H36        -3.5780   -5.1470    0.7890 h1        1 MOL      0.127034
     88 H37        -2.1630   -5.2270   -1.3180 h1        1 MOL     -0.036195
     89 H38        -3.7070   -3.2970   -2.1670 ho        1 MOL      0.424564
     90 H39        -4.9770   -6.3020   -1.4170 hc        1 MOL      0.124274
     91 H40        -3.7560   -6.7100   -2.4610 hc        1 MOL      0.124274
     92 H41        -3.4930   -7.1140   -0.7190 hc        1 MOL      0.124274
     93 N9         -1.2270   -4.0320    0.9670 n         1 MOL     -0.719521
     94 C29         0.0130   -3.3390    1.3040 c3        1 MOL      0.218335
     95 C30         1.1930   -3.9040    0.4690 c         1 MOL      0.394077
     96 O16         1.7000   -4.9990    0.7800 o         1 MOL     -0.555242
     97 C31         0.2930   -3.4170    2.8240 c3        1 MOL      0.129797
     98 C32        -0.8190   -3.0320    3.7110 c3        1 MOL      0.203830
     99 C33         1.6220   -2.7370    3.3110 c3        1 MOL     -0.222575
    100 C34        -0.8240   -3.6670    5.0860 c3        1 MOL     -0.288148
    101 H42        -1.2310   -5.0210    1.1750 hn        1 MOL      0.322760
    102 H43        -0.1660   -2.2710    1.1590 h1        1 MOL      0.024242
    103 H44         0.5730   -4.4340    3.0680 hc        1 MOL     -0.017958
    104 H45        -1.7360   -3.3720    3.2310 hc        1 MOL     -0.034612
    105 H46        -1.0080   -1.9590    3.7610 hc        1 MOL     -0.034612
    106 H47         1.8390   -3.0650    4.3230 hc        1 MOL      0.037751
    107 H48         2.5000   -2.9770    2.7160 hc        1 MOL      0.037751
    108 H49         1.4830   -1.6560    3.4300 hc        1 MOL      0.037751
    109 H50        -0.8190   -4.7560    5.0030 hc        1 MOL      0.062536
    110 H51         0.0550   -3.3400    5.6370 hc        1 MOL      0.062536
    111 H52        -1.6910   -3.3490    5.6570 hc        1 MOL      0.062536
    112 N10         1.7740   -3.1090   -0.3770 n         1 MOL     -0.148577
    113 C35         3.0360   -3.3760   -1.2120 c3        1 MOL      0.081567
    114 C36         4.2470   -3.1680   -0.3630 c         1 MOL      0.291413
    115 O17         4.2300   -2.6040    0.7570 o         1 MOL     -0.272459
    116 C37         3.1240   -2.5410   -2.5320 c3        1 MOL      0.224734
    117 C38         1.8010   -2.3870   -3.1940 c3        1 MOL     -0.450440
    118 O18         3.6330   -1.2580   -2.3160 oh        1 MOL     -0.468167
    119 H53         1.3500   -2.1970   -0.4680 hn        1 MOL      0.087873
    120 H54         3.0360   -4.4180   -1.5350 h1        1 MOL      0.067031
    121 H55         3.8250   -3.0390   -3.2020 h1        1 MOL     -0.009643
    122 H56         3.6180   -0.7790   -3.1410 ho        1 MOL      0.367487
    123 H57         1.2030   -1.7160   -2.5800 hc        1 MOL      0.129827
    124 H58         1.8610   -1.8160   -4.1300 hc        1 MOL      0.129827
    125 H59         1.3380   -3.3700   -3.2820 hc        1 MOL      0.129827
    126 N11         5.3990   -3.5820   -0.9280 n         1 MOL     -0.283518
    127 C39         6.6540   -3.4280   -0.2890 c3        1 MOL     -0.203698
    128 C40         7.1430   -1.9960   -0.0640 c         1 MOL      0.188254
    129 O19         7.7440   -1.5790    0.9490 o         1 MOL     -0.416813
    130 C41         7.8240   -4.1000   -1.0700 c3        1 MOL      0.559192
    131 C42         9.1460   -4.1170   -0.3990 c3        1 MOL     -0.330053
    132 O20         7.4760   -5.3550   -1.5680 oh        1 MOL     -0.630384
    133 H60         5.2860   -3.9790   -1.8470 hn        1 MOL      0.234521
    134 H61         6.5150   -3.9230    0.6670 h1        1 MOL      0.159525
    135 H62         7.9530   -3.5360   -1.9840 h1        1 MOL     -0.069905
    136 H63         6.6740   -5.2830   -2.1010 ho        1 MOL      0.370898
    137 H64         9.8650   -4.6600   -1.0320 hc        1 MOL      0.097060
    138 H65         9.4210   -3.0680   -0.3180 hc        1 MOL      0.097060
    139 H66         9.1850   -4.5700    0.5830 hc        1 MOL      0.097060
    140 N12         6.7410   -1.0600   -0.9710 n         1 MOL     -0.060649
    141 C43         6.8590    0.4090   -0.8670 c3        1 MOL     -0.247739
    142 C44         6.0460    1.0230    0.2470 c         1 MOL      0.371363
    143 O21         6.5770    1.9430    0.8770 o         1 MOL     -0.525385
    144 C45         6.6560    0.9340   -2.2430 c3        1 MOL     -0.170594
    145 C46         7.0280    2.3900   -2.5450 c3        1 MOL      0.161271
    146 C47         7.0530    2.6810   -4.0720 c3        1 MOL      0.002616
    147 C48         7.5990    4.1370   -4.3020 c3        1 MOL      0.006306
    148 N13         9.0280    4.2920   -4.4510 n4        1 MOL     -0.383149
    149 H67         6.2950   -1.4210   -1.8020 hn        1 MOL      0.113830
    150 H68         7.9220    0.5690   -0.6500 h1        1 MOL      0.178589
    151 H69         5.6200    0.7420   -2.4910 hc        1 MOL      0.042675
    152 H70         7.3070    0.3650   -2.9130 hc        1 MOL      0.042675
    153 H71         8.0220    2.4950   -2.1120 hc        1 MOL     -0.010236
    154 H72         6.3220    3.1260   -2.1550 hc        1 MOL     -0.010236
    155 H73         6.0970    2.6380   -4.5880 hc        1 MOL      0.034676
    156 H74         7.7660    1.9730   -4.5040 hc        1 MOL      0.034676
    157 H75         7.3490    4.6150   -3.3520 hx        1 MOL      0.084721
    158 H76         7.0980    4.6260   -5.1390 hx        1 MOL      0.084721
    159 H77         9.2150    5.1770   -4.8950 hn        1 MOL      0.320758
    160 H78         9.4800    4.2280   -3.5570 hn        1 MOL      0.320758
    161 H79         9.4260    3.5580   -5.0350 hn        1 MOL      0.320758
    162 N14         4.8970    0.4170    0.5910 n         1 MOL     -0.020592
    163 C49         3.9970    1.0150    1.6690 c3        1 MOL     -0.234979
    164 C50         4.4710    0.4510    3.0540 c         1 MOL      0.472568
    165 O22         4.5370    1.1610    4.1420 o         1 MOL     -0.548769
    166 C51         2.4990    0.6970    1.4400 c3        1 MOL      0.347437
    167 C52         2.0590    1.1240    0.0740 c3        1 MOL      0.117625
    168 C53         0.6520    0.7580   -0.3260 c         1 MOL      0.493162
    169 O23        -0.1340    1.6780   -0.3790 o         1 MOL     -0.591605
    170 O24         0.3410   -0.4500   -0.4070 o         1 MOL     -0.591605
    171 H80         4.5690   -0.4410    0.1820 hn        1 MOL      0.257885
    172 H81         4.0870    2.1030    1.6380 h1        1 MOL      0.095836
    173 H82         2.0220    1.2520    2.2380 hc        1 MOL     -0.062244
    174 H83         2.3740   -0.3720    1.6240 hc        1 MOL     -0.062244
    175 H84         2.7920    0.6660   -0.5900 hc        1 MOL     -0.123544
    176 H85         2.1320    2.2130    0.0110 hc        1 MOL     -0.123544
    177 N15         4.8200   -0.8490    3.0530 n         1 MOL     -0.106449
    178 C54         5.5780   -1.4170    4.1220 c3        1 MOL     -0.263886
    179 H86         5.9500   -0.6200    4.7660 h1        1 MOL      0.101388
    180 H87         4.9440   -2.0870    4.7030 h1        1 MOL      0.101388
    181 H88         6.4200   -1.9760    3.7140 h1        1 MOL      0.101388
    182 H89         4.5600   -1.4250    2.2650 hn        1 MOL      0.136576
    183 Ca1        -2.0250   -0.2160   -1.4450 Ca        1 MOL      1.749581
    184 O25        -0.7360    0.5110   -3.5980 oh        1 MOL     -0.874502
    185 H90        -0.1820    0.3150   -4.3580 ho        1 MOL      0.400171
    186 H91        -1.1920    1.3200   -3.8460 ho        1 MOL      0.400171
    187 O26        -1.3240   -2.6010   -2.9230 oh        1 MOL     -0.874502
    188 H92        -1.0660   -2.3280   -3.8000 ho        1 MOL      0.400171
    189 H93        -2.0690   -3.1860   -3.0730 ho        1 MOL      0.400171
@<TRIPOS>BOND
     1    1    2 1   
     2    1    4 1   
     3    1    5 1   
     4    1    6 1   
     5    2    3 2   
     6    2    7 1   
     7    7    8 1   
     8    7   15 1   
     9    8    9 1   
    10    8   11 1   
    11    8   16 1   
    12    9   10 2   
    13    9   19 1   
    14   11   12 1   
    15   11   17 1   
    16   11   18 1   
    17   12   13 1   
    18   12   14 1   
    19   19   20 1   
    20   19   28 1   
    21   20   21 1   
    22   20   23 1   
    23   20   29 1   
    24   21   22 2   
    25   21   41 1   
    26   23   24 1   
    27   23   30 1   
    28   23   31 1   
    29   24   25 1   
    30   24   32 1   
    31   24   33 1   
    32   25   26 1   
    33   25   34 1   
    34   25   35 1   
    35   26   27 1   
    36   26   36 1   
    37   26   37 1   
    38   27   38 1   
    39   27   39 1   
    40   27   40 1   
    41   41   42 1   
    42   41   49 1   
    43   42   43 1   
    44   42   45 1   
    45   42   50 1   
    46   43   44 2   
    47   43   53 1   
    48   45   46 1   
    49   45   51 1   
    50   45   52 1   
    51   46   47 1   
    52   46   48 1   
    53   53   54 1   
    54   53   57 1   
    55   54   55 1   
    56   54   58 1   
    57   54   59 1   
    58   55   56 2   
    59   55   60 1   
    60   60   61 1   
    61   60   68 1   
    62   61   62 1   
    63   61   64 1   
    64   61   69 1   
    65   62   63 2   
    66   62   72 1   
    67   64   65 1   
    68   64   70 1   
    69   64   71 1   
    70   65   66 1   
    71   65   67 1   
    72   72   73 1   
    73   72   76 1   
    74   73   74 1   
    75   73   77 1   
    76   73   78 1   
    77   74   75 2   
    78   74   79 1   
    79   79   80 1   
    80   79   86 1   
    81   80   81 1   
    82   80   83 1   
    83   80   87 1   
    84   81   82 2   
    85   81   93 1   
    86   83   84 1   
    87   83   85 1   
    88   83   88 1   
    89   84   90 1   
    90   84   91 1   
    91   84   92 1   
    92   85   89 1   
    93   93   94 1   
    94   93  101 1   
    95   94   95 1   
    96   94   97 1   
    97   94  102 1   
    98   95   96 2   
    99   95  112 1   
   100   97   98 1   
   101   97   99 1   
   102   97  103 1   
   103   98  100 1   
   104   98  104 1   
   105   98  105 1   
   106   99  106 1   
   107   99  107 1   
   108   99  108 1   
   109  100  109 1   
   110  100  110 1   
   111  100  111 1   
   112  112  113 1   
   113  112  119 1   
   114  113  114 1   
   115  113  116 1   
   116  113  120 1   
   117  114  115 2   
   118  114  126 1   
   119  116  117 1   
   120  116  118 1   
   121  116  121 1   
   122  117  123 1   
   123  117  124 1   
   124  117  125 1   
   125  118  122 1   
   126  126  127 1   
   127  126  133 1   
   128  127  128 1   
   129  127  130 1   
   130  127  134 1   
   131  128  129 2   
   132  128  140 1   
   133  130  131 1   
   134  130  132 1   
   135  130  135 1   
   136  131  137 1   
   137  131  138 1   
   138  131  139 1   
   139  132  136 1   
   140  140  141 1   
   141  140  149 1   
   142  141  142 1   
   143  141  144 1   
   144  141  150 1   
   145  142  143 2   
   146  142  162 1   
   147  144  145 1   
   148  144  151 1   
   149  144  152 1   
   150  145  146 1   
   151  145  153 1   
   152  145  154 1   
   153  146  147 1   
   154  146  155 1   
   155  146  156 1   
   156  147  148 1   
   157  147  157 1   
   158  147  158 1   
   159  148  159 1   
   160  148  160 1   
   161  148  161 1   
   162  162  163 1   
   163  162  171 1   
   164  163  164 1   
   165  163  166 1   
   166  163  172 1   
   167  164  165 2   
   168  164  177 1   
   169  166  167 1   
   170  166  173 1   
   171  166  174 1   
   172  167  168 1   
   173  167  175 1   
   174  167  176 1   
   175  168  169 1   
   176  168  170 1   
   177  177  178 1   
   178  177  182 1   
   179  178  179 1   
   180  178  180 1   
   181  178  181 1   
   182  184  185 1   
   183  184  186 1   
   184  187  188 1   
   185  187  189 1   
@<TRIPOS>SUBSTRUCTURE
     1 MOL         1 TEMP              0 ****  ****    0 ROOT
