@<TRIPOS>MOLECULE
MOL
  175   173     1     0     0
SMALL
resp


@<TRIPOS>ATOM
      1 C1          0.5450    4.1200    5.5030 c3        1 MOL     -0.374793
      2 C2          0.0020    4.2070    4.0900 c         1 MOL      0.740717
      3 O1          0.6160    4.6210    3.1320 o         1 MOL     -0.563468
      4 H1          0.9800    3.1330    5.6650 hc        1 MOL      0.089373
      5 H2          1.3110    4.8820    5.6470 hc        1 MOL      0.089373
      6 H3         -0.2650    4.2790    6.2140 hc        1 MOL      0.089373
      7 N1         -1.3100    3.9150    3.9050 n         1 MOL     -0.627708
      8 C3         -1.9270    3.6640    2.6410 c3        1 MOL      0.133489
      9 C4         -2.0650    4.9100    1.7440 c         1 MOL      0.674516
     10 O2         -2.4110    5.9700    2.2420 o         1 MOL     -0.580506
     11 C5         -3.2510    2.9480    2.8910 c3        1 MOL     -0.172162
     12 C6         -4.0030    2.7180    1.5320 c         1 MOL      0.644052
     13 O3         -4.9850    3.4020    1.3460 o         1 MOL     -0.609099
     14 O4         -3.4650    1.9940    0.6640 o         1 MOL     -0.609099
     15 H4         -1.7800    3.6080    4.7480 hn        1 MOL      0.301726
     16 H5         -1.2420    2.9910    2.1220 h1        1 MOL      0.055343
     17 H6         -3.8030    3.5750    3.5820 hc        1 MOL      0.008754
     18 H7         -3.2280    1.9840    3.4120 hc        1 MOL      0.008754
     19 N2         -2.0670    4.6790    0.3910 n         1 MOL     -0.578479
     20 C7         -2.4230    5.6940   -0.6570 c3        1 MOL      0.357425
     21 C8         -3.3590    5.1490   -1.8050 c         1 MOL      0.398484
     22 O5         -3.6690    5.9550   -2.7290 o         1 MOL     -0.578564
     23 C9         -1.1310    6.2750   -1.1520 c3        1 MOL     -0.336638
     24 H8         -1.6370    3.8270    0.0690 hn        1 MOL      0.315072
     25 H9         -2.9910    6.5240   -0.2150 h1        1 MOL      0.015577
     26 H10        -1.3090    7.2440   -1.6230 hc        1 MOL      0.075548
     27 H11        -0.4760    6.4130   -0.2970 hc        1 MOL      0.075548
     28 H12        -0.5940    5.5920   -1.8180 hc        1 MOL      0.075548
     29 N3         -3.8530    3.9130   -1.6540 n         1 MOL     -0.227297
     30 C10        -4.6640    3.2420   -2.7240 c3        1 MOL      0.113297
     31 C11        -5.9790    2.6040   -2.2490 c         1 MOL      0.309926
     32 O6         -6.9210    2.4450   -3.0760 o         1 MOL     -0.560350
     33 C12        -3.8010    2.2580   -3.5940 c3        1 MOL     -0.238096
     34 C13        -3.1710    1.1950   -2.6490 c         1 MOL      0.725170
     35 O7         -3.8930    0.4760   -1.9710 o         1 MOL     -0.694570
     36 O8         -1.9360    1.0270   -2.6470 o         1 MOL     -0.694570
     37 H13        -3.6190    3.4010   -0.8140 hn        1 MOL      0.136192
     38 H14        -5.1290    3.9740   -3.3840 h1        1 MOL      0.061020
     39 H15        -2.9690    2.7670   -4.0680 hc        1 MOL      0.062092
     40 H16        -4.4060    1.7970   -4.3770 hc        1 MOL      0.062092
     41 N4         -6.0420    2.3090   -0.9940 n         1 MOL      0.048554
     42 C14        -7.0900    1.4780   -0.4390 c3        1 MOL     -0.351293
     43 C15        -7.2660   -0.0310   -0.8290 c         1 MOL      0.524322
     44 O9         -8.3200   -0.5910   -0.6000 o         1 MOL     -0.606137
     45 H17        -5.3210    2.6260   -0.3580 hn        1 MOL      0.035623
     46 H18        -8.0430    1.9140   -0.7580 h1        1 MOL      0.130841
     47 H19        -6.9900    1.5240    0.6420 h1        1 MOL      0.130841
     48 N5         -6.2890   -0.7330   -1.4200 n         1 MOL     -0.148298
     49 C16        -6.4270   -2.0700   -1.9470 c3        1 MOL     -0.037797
     50 C17        -6.4470   -3.1160   -0.7810 c         1 MOL      0.472886
     51 O10        -6.7430   -4.2850   -1.1290 o         1 MOL     -0.571377
     52 C18        -5.2900   -2.3000   -2.9930 c3        1 MOL     -0.097309
     53 C19        -3.8350   -2.3690   -2.4990 c         1 MOL      0.483072
     54 N6         -2.8770   -2.6580   -3.3180 n         1 MOL     -0.544352
     55 O11        -3.4990   -2.2410   -1.3150 o         1 MOL     -0.492922
     56 H20        -5.4560   -0.1890   -1.6050 hn        1 MOL      0.173420
     57 H21        -7.3510   -2.1220   -2.5210 h1        1 MOL      0.095357
     58 H22        -5.4210   -1.5520   -3.7620 hc        1 MOL      0.043278
     59 H23        -5.5090   -3.2640   -3.4590 hc        1 MOL      0.043278
     60 H24        -3.1450   -2.7080   -4.2920 hn        1 MOL      0.299705
     61 H25        -1.9410   -2.6530   -2.9350 hn        1 MOL      0.299705
     62 N7         -6.2000   -2.7540    0.4290 n         1 MOL     -0.212973
     63 C20        -6.2190   -3.6570    1.5810 c3        1 MOL     -0.224936
     64 C21        -5.0040   -4.5750    1.7370 c         1 MOL      0.478696
     65 O12        -4.9690   -5.4170    2.6470 o         1 MOL     -0.559941
     66 H26        -5.8800   -1.8150    0.5970 hn        1 MOL      0.212122
     67 H27        -7.0470   -4.3680    1.5900 h1        1 MOL      0.111258
     68 H28        -6.3360   -3.1270    2.5250 h1        1 MOL      0.111258
     69 N8         -3.9320   -4.2010    1.0530 n         1 MOL     -0.192387
     70 C22        -2.5940   -4.7010    1.2730 c3        1 MOL     -0.026717
     71 C23        -1.5200   -3.5960    1.3590 c         1 MOL      0.443221
     72 O13        -1.7180   -2.5240    0.7840 o         1 MOL     -0.534564
     73 C24        -2.1980   -5.7550    0.1980 c3        1 MOL      0.461713
     74 C25        -3.1720   -6.9230    0.2310 c3        1 MOL     -0.431909
     75 O14        -2.2920   -5.1560   -1.0770 oh        1 MOL     -0.588034
     76 H29        -4.0670   -3.6200    0.2410 hn        1 MOL      0.216760
     77 H30        -2.6380   -5.2040    2.2290 h1        1 MOL      0.045385
     78 H31        -1.1900   -6.0630    0.4620 h1        1 MOL     -0.058132
     79 H32        -1.6250   -4.4840   -0.9610 ho        1 MOL      0.357637
     80 H33        -3.5070   -7.0930    1.2560 hc        1 MOL      0.110335
     81 H34        -4.0320   -6.6800   -0.3910 hc        1 MOL      0.110335
     82 H35        -2.7040   -7.8090   -0.1990 hc        1 MOL      0.110335
     83 N9         -0.3320   -3.7590    2.0140 n         1 MOL     -0.462681
     84 C26         0.8580   -2.9050    1.9330 c3        1 MOL      0.042806
     85 C27         1.6970   -3.3360    0.7160 c         1 MOL      0.510093
     86 O15         2.1570   -4.4900    0.5180 o         1 MOL     -0.595045
     87 C28         1.6750   -3.0820    3.2320 c3        1 MOL      0.211950
     88 C29         0.9360   -2.3210    4.4040 c3        1 MOL      0.141142
     89 C30         3.0830   -2.8230    3.0890 c3        1 MOL     -0.301836
     90 C31         1.2930   -2.7790    5.8240 c3        1 MOL     -0.110851
     91 H36        -0.2020   -4.6800    2.3860 hn        1 MOL      0.252951
     92 H37         0.4200   -1.9270    1.7520 h1        1 MOL     -0.051107
     93 H38         1.6140   -4.1180    3.5670 hc        1 MOL     -0.023683
     94 H39        -0.1320   -2.4990    4.2780 hc        1 MOL     -0.044352
     95 H40         1.0640   -1.2460    4.2550 hc        1 MOL     -0.044352
     96 H41         3.2680   -1.9620    2.4430 hc        1 MOL      0.061048
     97 H42         3.6200   -2.6040    4.0220 hc        1 MOL      0.061048
     98 H43         3.5680   -3.6590    2.5880 hc        1 MOL      0.061048
     99 H44         0.6510   -2.3260    6.5830 hc        1 MOL      0.014832
    100 H45         1.0360   -3.8360    5.8540 hc        1 MOL      0.014832
    101 H46         2.3560   -2.6590    6.0460 hc        1 MOL      0.014832
    102 N10         2.0070   -2.3060   -0.0400 n         1 MOL     -0.250607
    103 C32         2.8650   -2.2360   -1.2250 c3        1 MOL      0.089057
    104 C33         4.1850   -1.6180   -0.8910 c         1 MOL      0.383986
    105 O16         4.3550   -1.0980    0.1870 o         1 MOL     -0.324284
    106 C34         2.1820   -1.4700   -2.3140 c3        1 MOL     -0.332812
    107 C35         0.6190   -1.6460   -2.4550 c         1 MOL      0.742282
    108 O17        -0.1720   -1.1920   -1.5980 o         1 MOL     -0.671819
    109 O18         0.1550   -2.2100   -3.4640 o         1 MOL     -0.671819
    110 H47         1.4960   -1.4930    0.2670 hn        1 MOL      0.273643
    111 H48         3.0430   -3.2450   -1.6020 h1        1 MOL      0.074946
    112 H49         2.7220   -1.7080   -3.2330 hc        1 MOL      0.069030
    113 H50         2.3870   -0.4070   -2.2260 hc        1 MOL      0.069030
    114 N11         5.1400   -1.7160   -1.8000 n         1 MOL     -0.574730
    115 C36         6.5080   -1.2300   -1.5420 c3        1 MOL      0.313982
    116 C37         6.6650    0.2900   -1.2120 c         1 MOL      0.319120
    117 O19         7.3950    0.6280   -0.2330 o         1 MOL     -0.465811
    118 C38         7.5060   -1.7750   -2.5430 c3        1 MOL     -0.199068
    119 C39         8.8970   -1.7620   -1.9610 ca        1 MOL      0.137036
    120 C40         9.3030   -2.6810   -0.9600 ca        1 MOL     -0.220911
    121 C41         9.8290   -0.8560   -2.4840 ca        1 MOL     -0.220911
    122 C42        10.6270   -2.7400   -0.5210 ca        1 MOL     -0.024391
    123 C43        11.1500   -0.8000   -1.9340 ca        1 MOL     -0.024391
    124 C44        11.5110   -1.7870   -1.0110 ca        1 MOL     -0.212814
    125 H51         4.9590   -2.2010   -2.6680 hn        1 MOL      0.317944
    126 H52         6.8890   -1.8380   -0.7070 h1        1 MOL      0.068464
    127 H53         7.4830   -1.2430   -3.4980 hc        1 MOL      0.056824
    128 H54         7.2870   -2.8070   -2.8130 hc        1 MOL      0.056824
    129 H55         8.5640   -3.3820   -0.5980 ha        1 MOL      0.126424
    130 H56         9.5760   -0.1840   -3.2950 ha        1 MOL      0.126424
    131 H57        10.9070   -3.4780    0.2040 ha        1 MOL      0.097647
    132 H58        11.8610   -0.0760   -2.3010 ha        1 MOL      0.097647
    133 H59        12.4840   -1.8130   -0.5590 ha        1 MOL      0.115970
    134 N12         6.0570    1.1680   -1.9580 n         1 MOL     -0.195367
    135 C45         6.1340    2.6290   -1.6190 c3        1 MOL      0.055490
    136 C46         5.5070    2.9800   -0.2790 c         1 MOL      0.243782
    137 O20         5.9810    3.8560    0.3990 o         1 MOL     -0.488545
    138 C47         5.2540    3.3570   -2.6210 c3        1 MOL      0.012011
    139 C48         5.1510    2.3570   -3.8590 c3        1 MOL     -0.068227
    140 C49         5.2600    0.9580   -3.2340 c3        1 MOL     -0.001362
    141 H60         7.1610    2.9950   -1.6900 h1        1 MOL      0.077789
    142 H61         4.2490    3.2660   -2.1950 hc        1 MOL      0.024507
    143 H62         5.5440    4.3620   -2.9620 hc        1 MOL      0.024507
    144 H63         4.1860    2.3750   -4.3800 hc        1 MOL      0.035325
    145 H64         5.9110    2.4810   -4.6230 hc        1 MOL      0.035325
    146 H65         4.2770    0.5160   -3.0700 h1        1 MOL      0.053083
    147 H66         5.6720    0.3040   -4.0020 h1        1 MOL      0.053083
    148 N13         4.6540    2.1250    0.3000 n         1 MOL      0.028938
    149 C50         4.0720    2.3180    1.5790 c3        1 MOL     -0.097567
    150 C51         4.8760    1.6290    2.6370 c         1 MOL      0.473466
    151 O21         4.9290    2.0220    3.7610 o         1 MOL     -0.568066
    152 C52         2.6580    1.7480    1.5030 c3        1 MOL      0.028970
    153 C53         1.8100    2.3280    0.2830 c3        1 MOL     -0.160869
    154 C54         0.3710    1.7530    0.3110 c         1 MOL      0.582209
    155 O22         0.0770    0.7850    1.0370 o         1 MOL     -0.659360
    156 O23        -0.5360    2.3710   -0.3560 o         1 MOL     -0.659360
    157 H67         4.2130    1.4700   -0.3390 hn        1 MOL      0.215542
    158 H68         4.1010    3.3630    1.8680 h1        1 MOL      0.104162
    159 H69         2.0230    1.9590    2.3680 hc        1 MOL      0.002384
    160 H70         2.7570    0.6680    1.3450 hc        1 MOL      0.002384
    161 H71         2.1920    1.9030   -0.6510 hc        1 MOL      0.054438
    162 H72         1.8310    3.4200    0.2830 hc        1 MOL      0.054438
    163 N14         5.6180    0.5850    2.2290 n         1 MOL     -0.026255
    164 C55         6.5420   -0.2480    3.1030 c3        1 MOL     -0.269260
    165 H73         6.2930   -1.3040    2.9910 h1        1 MOL      0.101493
    166 H74         7.5760   -0.0850    2.7990 h1        1 MOL      0.101493
    167 H75         6.4190    0.0450    4.1460 h1        1 MOL      0.101493
    168 H76         5.4380    0.3220    1.2630 hn        1 MOL     -0.079344
    169 Ca1        -2.1340   -0.0940   -0.1510 Ca        1 MOL      1.643103
    170 O24        -4.2990   -0.7390    1.3640 oh        1 MOL     -0.697268
    171 H77        -4.9330   -0.0910    1.6570 ho        1 MOL      0.355049
    172 H78        -3.9570   -1.1250    2.1720 ho        1 MOL      0.355049
    173 O25        -1.7880   -0.1850    2.5930 oh        1 MOL     -0.697268
    174 H79        -0.9020    0.0760    2.3350 ho        1 MOL      0.355049
    175 H80        -1.8130   -0.0320    3.5460 ho        1 MOL      0.355049
@<TRIPOS>BOND
     1    1    2 1   
     2    1    4 1   
     3    1    5 1   
     4    1    6 1   
     5    2    3 2   
     6    2    7 1   
     7    7    8 1   
     8    7   15 1   
     9    8    9 1   
    10    8   11 1   
    11    8   16 1   
    12    9   10 2   
    13    9   19 1   
    14   11   12 1   
    15   11   17 1   
    16   11   18 1   
    17   12   13 1   
    18   12   14 1   
    19   19   20 1   
    20   19   24 1   
    21   20   21 1   
    22   20   23 1   
    23   20   25 1   
    24   21   22 2   
    25   21   29 1   
    26   23   26 1   
    27   23   27 1   
    28   23   28 1   
    29   29   30 1   
    30   29   37 1   
    31   30   31 1   
    32   30   33 1   
    33   30   38 1   
    34   31   32 2   
    35   31   41 1   
    36   33   34 1   
    37   33   39 1   
    38   33   40 1   
    39   34   35 1   
    40   34   36 1   
    41   41   42 1   
    42   41   45 1   
    43   42   43 1   
    44   42   46 1   
    45   42   47 1   
    46   43   44 2   
    47   43   48 1   
    48   48   49 1   
    49   48   56 1   
    50   49   50 1   
    51   49   52 1   
    52   49   57 1   
    53   50   51 2   
    54   50   62 1   
    55   52   53 1   
    56   52   58 1   
    57   52   59 1   
    58   53   54 1   
    59   53   55 2   
    60   54   60 1   
    61   54   61 1   
    62   62   63 1   
    63   62   66 1   
    64   63   64 1   
    65   63   67 1   
    66   63   68 1   
    67   64   65 2   
    68   64   69 1   
    69   69   70 1   
    70   69   76 1   
    71   70   71 1   
    72   70   73 1   
    73   70   77 1   
    74   71   72 2   
    75   71   83 1   
    76   73   74 1   
    77   73   75 1   
    78   73   78 1   
    79   74   80 1   
    80   74   81 1   
    81   74   82 1   
    82   75   79 1   
    83   83   84 1   
    84   83   91 1   
    85   84   85 1   
    86   84   87 1   
    87   84   92 1   
    88   85   86 2   
    89   85  102 1   
    90   87   88 1   
    91   87   89 1   
    92   87   93 1   
    93   88   90 1   
    94   88   94 1   
    95   88   95 1   
    96   89   96 1   
    97   89   97 1   
    98   89   98 1   
    99   90   99 1   
   100   90  100 1   
   101   90  101 1   
   102  102  103 1   
   103  102  110 1   
   104  103  104 1   
   105  103  106 1   
   106  103  111 1   
   107  104  105 2   
   108  104  114 1   
   109  106  107 1   
   110  106  112 1   
   111  106  113 1   
   112  107  108 1   
   113  107  109 1   
   114  114  115 1   
   115  114  125 1   
   116  115  116 1   
   117  115  118 1   
   118  115  126 1   
   119  116  117 2   
   120  116  134 1   
   121  118  119 1   
   122  118  127 1   
   123  118  128 1   
   124  119  120 ar  
   125  119  121 ar  
   126  120  122 ar  
   127  120  129 1   
   128  121  123 ar  
   129  121  130 1   
   130  122  124 ar  
   131  122  131 1   
   132  123  124 ar  
   133  123  132 1   
   134  124  133 1   
   135  134  135 1   
   136  134  140 1   
   137  135  136 1   
   138  135  138 1   
   139  135  141 1   
   140  136  137 2   
   141  136  148 1   
   142  138  139 1   
   143  138  142 1   
   144  138  143 1   
   145  139  140 1   
   146  139  144 1   
   147  139  145 1   
   148  140  146 1   
   149  140  147 1   
   150  148  149 1   
   151  148  157 1   
   152  149  150 1   
   153  149  152 1   
   154  149  158 1   
   155  150  151 2   
   156  150  163 1   
   157  152  153 1   
   158  152  159 1   
   159  152  160 1   
   160  153  154 1   
   161  153  161 1   
   162  153  162 1   
   163  154  155 1   
   164  154  156 1   
   165  163  164 1   
   166  163  168 1   
   167  164  165 1   
   168  164  166 1   
   169  164  167 1   
   170  170  171 1   
   171  170  172 1   
   172  173  174 1   
   173  173  175 1   
@<TRIPOS>SUBSTRUCTURE
     1 MOL         1 TEMP              0 ****  ****    0 ROOT
