@<TRIPOS>MOLECULE
MOL
  176   174     1     0     0
SMALL
resp


@<TRIPOS>ATOM
      1 C1         -0.0070    4.5300    6.2090 c3        1 MOL     -0.434617
      2 C2         -0.1200    3.7800    4.8950 c         1 MOL      0.698007
      3 O1          0.8660    3.5390    4.2030 o         1 MOL     -0.606976
      4 H1          0.6510    5.3890    6.0800 hc        1 MOL      0.117592
      5 H2         -0.9950    4.8730    6.5190 hc        1 MOL      0.117592
      6 H3          0.4050    3.8700    6.9710 hc        1 MOL      0.117592
      7 N1         -1.2930    3.5620    4.3660 n         1 MOL     -0.554004
      8 C3         -1.5990    2.9340    3.1000 c3        1 MOL      0.240547
      9 C4         -2.0360    4.1510    2.2000 c         1 MOL      0.526646
     10 O2         -2.9370    4.8910    2.6240 o         1 MOL     -0.560621
     11 C5         -2.5140    1.7380    3.1410 c3        1 MOL     -0.201283
     12 C6         -2.8030    1.1460    1.7450 c         1 MOL      0.864512
     13 O3         -2.8350   -0.0970    1.7050 o         1 MOL     -0.800030
     14 O4         -3.0820    1.8840    0.7690 o         1 MOL     -0.800030
     15 H4         -2.0550    3.9220    4.9220 hn        1 MOL      0.290575
     16 H5         -0.6770    2.5850    2.6150 h1        1 MOL     -0.037094
     17 H6         -3.4060    2.0710    3.6670 hc        1 MOL      0.044052
     18 H7         -1.9840    1.0050    3.7530 hc        1 MOL      0.044052
     19 N2         -1.4790    4.2360    0.9140 n         1 MOL     -0.383223
     20 C7         -1.5720    5.3860    0.0450 c3        1 MOL     -0.017780
     21 C8         -2.7260    5.3720   -1.0330 c         1 MOL      0.469194
     22 O5         -2.9450    6.3680   -1.7890 o         1 MOL     -0.542972
     23 C9         -0.1340    5.6270   -0.5130 c3        1 MOL     -0.167251
     24 C10         0.1360    4.9910   -1.8920 c3        1 MOL      0.132135
     25 C11         1.5020    5.2590   -2.3880 c3        1 MOL     -0.014791
     26 C12         1.7010    5.0210   -3.8250 c3        1 MOL     -0.003491
     27 N3          2.4200    3.7340   -4.0590 n4        1 MOL     -0.523902
     28 H8         -0.9310    3.4230    0.6900 hn        1 MOL      0.303696
     29 H9         -1.8790    6.1680    0.7380 h1        1 MOL      0.105829
     30 H10         0.6300    5.1700    0.1180 hc        1 MOL      0.068325
     31 H11        -0.0660    6.7030   -0.6940 hc        1 MOL      0.068325
     32 H12        -0.5170    5.4320   -2.6440 hc        1 MOL      0.005047
     33 H13        -0.0190    3.9080   -1.8910 hc        1 MOL      0.005047
     34 H14         2.2130    4.7240   -1.7530 hc        1 MOL      0.010086
     35 H15         1.6080    6.3240   -2.1860 hc        1 MOL      0.010086
     36 H16         2.3170    5.8600   -4.1430 hx        1 MOL      0.107144
     37 H17         0.7790    5.1900   -4.3950 hx        1 MOL      0.107144
     38 H18         1.8280    3.0160   -3.6810 hn        1 MOL      0.374760
     39 H19         2.6080    3.6610   -5.0510 hn        1 MOL      0.374760
     40 H20         3.3120    3.6500   -3.5770 hn        1 MOL      0.374760
     41 N4         -3.4290    4.2330   -1.1460 n         1 MOL     -0.427230
     42 C13        -4.4170    3.8350   -2.1800 c3        1 MOL      0.089499
     43 C14        -5.6550    3.0330   -1.5900 c         1 MOL      0.439095
     44 O6         -6.6340    3.0030   -2.3200 o         1 MOL     -0.532603
     45 C15        -3.8910    2.9400   -3.3110 c3        1 MOL     -0.024062
     46 C16        -3.1870    1.6510   -2.8460 c         1 MOL      0.716949
     47 O7         -3.7900    0.8060   -2.2290 o         1 MOL     -0.802885
     48 O8         -1.9410    1.5760   -2.8860 o         1 MOL     -0.802885
     49 H21        -3.2550    3.5840   -0.3970 hn        1 MOL      0.303786
     50 H22        -4.8840    4.7030   -2.6510 h1        1 MOL      0.084527
     51 H23        -3.2180    3.5560   -3.9070 hc        1 MOL      0.008766
     52 H24        -4.7330    2.7000   -3.9690 hc        1 MOL      0.008766
     53 N5         -5.6440    2.5620   -0.3470 n         1 MOL     -0.216835
     54 C17        -6.7840    1.9980    0.3790 c3        1 MOL     -0.303807
     55 C18        -7.0060    0.4800    0.1480 c         1 MOL      0.627274
     56 O9         -7.8970   -0.1180    0.7780 o         1 MOL     -0.593230
     57 H25        -4.8130    2.7040    0.2240 hn        1 MOL      0.222324
     58 H26        -7.6400    2.5950    0.0520 h1        1 MOL      0.148797
     59 H27        -6.6010    2.0740    1.4510 h1        1 MOL      0.148797
     60 N6         -6.2020   -0.2110   -0.7280 n         1 MOL     -0.384611
     61 C19        -6.4060   -1.6190   -1.0190 c3        1 MOL      0.098803
     62 C20        -6.0980   -2.7080    0.0460 c         1 MOL      0.342470
     63 O10        -6.2840   -3.8760   -0.1440 o         1 MOL     -0.467325
     64 C21        -5.6420   -1.9750   -2.3530 c3        1 MOL     -0.493550
     65 C22        -4.1050   -2.0300   -2.1980 c         1 MOL      0.869534
     66 N7         -3.3630   -2.3650   -3.1620 n         1 MOL     -0.408375
     67 O11        -3.6080   -1.8450   -1.1630 o         1 MOL     -0.736676
     68 H28        -5.4340    0.2630   -1.1970 hn        1 MOL      0.270517
     69 H29        -7.4720   -1.7180   -1.2190 h1        1 MOL      0.109928
     70 H30        -5.8200   -1.2490   -3.1510 hc        1 MOL      0.137621
     71 H31        -5.9580   -2.9740   -2.6690 hc        1 MOL      0.137621
     72 H32        -3.7990   -2.3480   -4.0710 hn        1 MOL      0.207754
     73 H33        -2.3440   -2.3320   -3.1050 hn        1 MOL      0.207754
     74 N8         -5.8200   -2.2550    1.2400 n         1 MOL     -0.152865
     75 C23        -5.6890   -3.0710    2.4070 c3        1 MOL     -0.061252
     76 C24        -4.3660   -3.7120    2.5920 c         1 MOL      0.425503
     77 O12        -4.2650   -4.5700    3.4860 o         1 MOL     -0.554741
     78 H34        -5.7950   -1.2570    1.3830 hn        1 MOL      0.239185
     79 H35        -6.4110   -3.8480    2.1510 h1        1 MOL      0.077352
     80 H36        -5.9830   -2.5550    3.3190 h1        1 MOL      0.077352
     81 N9         -3.3310   -3.3320    1.7940 n         1 MOL     -0.026619
     82 C25        -2.0150   -3.9460    1.9300 c3        1 MOL      0.026601
     83 C26        -0.9260   -3.0070    1.4590 c         1 MOL      0.549293
     84 O13        -1.1350   -2.1210    0.6170 o         1 MOL     -0.569619
     85 C27        -1.9210   -5.2890    1.2330 c3        1 MOL     -0.214148
     86 C28        -1.9800   -5.3160   -0.3130 ca        1 MOL      0.047763
     87 C29        -0.7560   -5.2900   -1.0530 ca        1 MOL     -0.135377
     88 C30        -3.1800   -5.2590   -1.0470 ca        1 MOL     -0.135377
     89 C31        -0.7190   -5.3280   -2.4830 ca        1 MOL     -0.293469
     90 C32        -3.1790   -5.3500   -2.4630 ca        1 MOL     -0.293469
     91 C33        -1.9610   -5.3320   -3.1830 ca        1 MOL      0.379910
     92 O14        -1.9790   -5.5220   -4.5040 oh        1 MOL     -0.489181
     93 H37        -3.5420   -2.4890    1.2770 hn        1 MOL      0.101838
     94 H38        -1.8570   -4.0670    3.0000 h1        1 MOL      0.038338
     95 H39        -2.7520   -5.8620    1.6300 hc        1 MOL      0.091673
     96 H40        -1.0190   -5.8250    1.5170 hc        1 MOL      0.091673
     97 H41         0.1850   -5.1980   -0.5320 ha        1 MOL      0.146975
     98 H42        -4.1320   -5.2170   -0.5290 ha        1 MOL      0.146975
     99 H43         0.2480   -5.2970   -2.9570 ha        1 MOL      0.136495
    100 H44        -4.1130   -5.3830   -3.0030 ha        1 MOL      0.136495
    101 H45        -1.0860   -5.6120   -4.8580 ho        1 MOL      0.352605
    102 N10         0.2740   -3.2670    1.9630 n         1 MOL     -0.506642
    103 C34         1.5080   -2.4700    1.6740 c3        1 MOL     -0.149909
    104 C35         2.6620   -3.4330    1.2630 c         1 MOL      0.578010
    105 O15         2.5300   -4.6490    1.4310 o         1 MOL     -0.538354
    106 C36         1.8560   -1.5640    2.9040 c3        1 MOL      0.183932
    107 C37         2.2360   -2.3240    4.1950 c3        1 MOL     -0.157130
    108 C38         0.7520   -0.4500    3.1450 c3        1 MOL     -0.133399
    109 C39         2.9440   -1.5030    5.2090 c3        1 MOL     -0.159560
    110 H46         0.2700   -3.9840    2.6770 hn        1 MOL      0.333895
    111 H47         1.3290   -1.8050    0.8400 h1        1 MOL      0.160761
    112 H48         2.7800   -1.0620    2.6320 hc        1 MOL     -0.041887
    113 H49         2.8790   -3.1170    3.8050 hc        1 MOL      0.058775
    114 H50         1.3400   -2.7470    4.6450 hc        1 MOL      0.058775
    115 H51         0.7640    0.2680    2.3190 hc        1 MOL      0.059120
    116 H52        -0.2110   -0.9640    3.2080 hc        1 MOL      0.059120
    117 H53         1.0050    0.0730    4.0680 hc        1 MOL      0.059120
    118 H54         3.6660   -0.8150    4.7690 hc        1 MOL      0.054601
    119 H55         2.1870   -0.9030    5.7190 hc        1 MOL      0.054601
    120 H56         3.3570   -2.0640    6.0520 hc        1 MOL      0.054601
    121 N11         3.6980   -2.8460    0.6380 n         1 MOL     -0.270908
    122 C40         5.0100   -3.5010    0.1900 c3        1 MOL     -0.184632
    123 C41         6.1240   -2.4170    0.1520 c         1 MOL      0.436433
    124 O16         5.7960   -1.2470    0.2350 o         1 MOL     -0.287341
    125 C42         4.7300   -4.2930   -1.0710 c3        1 MOL      0.257406
    126 O17         4.7110   -3.4650   -2.1830 oh        1 MOL     -0.613601
    127 H57         3.5950   -1.8880    0.3350 hn        1 MOL      0.127326
    128 H58         5.3450   -4.2530    0.8960 h1        1 MOL      0.120957
    129 H59         3.7690   -4.8170   -0.9710 h1        1 MOL      0.029776
    130 H60         5.4730   -5.0890   -1.1220 h1        1 MOL      0.029776
    131 H61         4.0900   -2.7410   -2.0250 ho        1 MOL      0.392165
    132 N12         7.4210   -2.7870    0.0860 n         1 MOL     -0.464330
    133 C43         8.5620   -1.8690    0.3220 c3        1 MOL      0.154011
    134 C44         8.3790   -0.5190   -0.2780 c         1 MOL      0.505146
    135 O18         8.4400    0.5200    0.4680 o         1 MOL     -0.519276
    136 C45         9.8980   -2.5650   -0.0420 c3        1 MOL     -0.392573
    137 H62         7.6610   -3.7530   -0.0280 hn        1 MOL      0.315331
    138 H63         8.5590   -1.5940    1.3740 h1        1 MOL      0.082273
    139 H64        10.7240   -1.8550    0.0550 hc        1 MOL      0.124706
    140 H65         9.9790   -3.5340    0.4350 hc        1 MOL      0.124706
    141 H66         9.9390   -2.6980   -1.1320 hc        1 MOL      0.124706
    142 N13         8.1660   -0.4080   -1.6250 n         1 MOL     -0.428384
    143 C46         8.0780    0.9090   -2.2730 c3        1 MOL      0.158783
    144 C47         6.9280    1.7950   -1.8120 c         1 MOL      0.435334
    145 O19         7.0660    3.0410   -1.8370 o         1 MOL     -0.510762
    146 C48         8.0870    0.7750   -3.7880 c3        1 MOL     -0.284097
    147 H67         7.9450   -1.2120   -2.2000 hn        1 MOL      0.264484
    148 H68         8.9680    1.4850   -2.0080 h1        1 MOL      0.081935
    149 H69         7.9770    1.8080   -4.1090 hc        1 MOL      0.082736
    150 H70         8.9690    0.2820   -4.2020 hc        1 MOL      0.082736
    151 H71         7.1930    0.2400   -4.1020 hc        1 MOL      0.082736
    152 N14         5.7650    1.2240   -1.4480 n         1 MOL     -0.337766
    153 C49         4.7090    1.9790   -0.8270 c3        1 MOL     -0.210522
    154 C50         5.1290    2.3450    0.6730 c         1 MOL      0.492714
    155 O20         4.7750    3.4260    1.1610 o         1 MOL     -0.530952
    156 C51         3.4120    1.1760   -0.7600 c3        1 MOL     -0.003675
    157 C52         2.3060    2.0100   -0.0410 c3        1 MOL     -0.303833
    158 C53         0.8750    1.3550   -0.1830 c         1 MOL      0.910183
    159 O21         0.7630    0.1800   -0.5150 o         1 MOL     -0.831127
    160 O22        -0.2000    1.9760   -0.1170 o         1 MOL     -0.831127
    161 H72         5.7740    0.2130   -1.5130 hn        1 MOL      0.206969
    162 H73         4.5640    2.9140   -1.3640 h1        1 MOL      0.125381
    163 H74         3.6380    0.3450   -0.0940 hc        1 MOL      0.039428
    164 H75         3.0480    0.8250   -1.7270 hc        1 MOL      0.039428
    165 H76         2.2210    3.0160   -0.4390 hc        1 MOL      0.111054
    166 H77         2.5240    2.0810    1.0280 hc        1 MOL      0.111054
    167 N15         5.8330    1.4570    1.4130 n         1 MOL     -0.032959
    168 C54         6.2080    1.7180    2.7940 c3        1 MOL     -0.157841
    169 H78         6.5990    2.7320    2.8780 h1        1 MOL      0.079793
    170 H79         5.3330    1.6120    3.4350 h1        1 MOL      0.079793
    171 H80         6.9750    1.0080    3.1030 h1        1 MOL      0.079793
    172 H81         5.9730    0.5580    0.9710 hn        1 MOL      0.065476
    173 Ca1        -1.8280    0.0460   -0.7690 Ca        1 MOL      1.766278
    174 O23        -0.8370   -1.9580   -2.2060 oh        1 MOL     -0.746712
    175 H82        -0.5270   -2.4040   -1.4130 ho        1 MOL      0.368663
    176 H83        -0.4530   -2.4620   -2.9260 ho        1 MOL      0.368663
@<TRIPOS>BOND
     1    1    2 1   
     2    1    4 1   
     3    1    5 1   
     4    1    6 1   
     5    2    3 2   
     6    2    7 1   
     7    7    8 1   
     8    7   15 1   
     9    8    9 1   
    10    8   11 1   
    11    8   16 1   
    12    9   10 2   
    13    9   19 1   
    14   11   12 1   
    15   11   17 1   
    16   11   18 1   
    17   12   13 1   
    18   12   14 1   
    19   19   20 1   
    20   19   28 1   
    21   20   21 1   
    22   20   23 1   
    23   20   29 1   
    24   21   22 2   
    25   21   41 1   
    26   23   24 1   
    27   23   30 1   
    28   23   31 1   
    29   24   25 1   
    30   24   32 1   
    31   24   33 1   
    32   25   26 1   
    33   25   34 1   
    34   25   35 1   
    35   26   27 1   
    36   26   36 1   
    37   26   37 1   
    38   27   38 1   
    39   27   39 1   
    40   27   40 1   
    41   41   42 1   
    42   41   49 1   
    43   42   43 1   
    44   42   45 1   
    45   42   50 1   
    46   43   44 2   
    47   43   53 1   
    48   45   46 1   
    49   45   51 1   
    50   45   52 1   
    51   46   47 1   
    52   46   48 1   
    53   53   54 1   
    54   53   57 1   
    55   54   55 1   
    56   54   58 1   
    57   54   59 1   
    58   55   56 2   
    59   55   60 1   
    60   60   61 1   
    61   60   68 1   
    62   61   62 1   
    63   61   64 1   
    64   61   69 1   
    65   62   63 2   
    66   62   74 1   
    67   64   65 1   
    68   64   70 1   
    69   64   71 1   
    70   65   66 1   
    71   65   67 2   
    72   66   72 1   
    73   66   73 1   
    74   74   75 1   
    75   74   78 1   
    76   75   76 1   
    77   75   79 1   
    78   75   80 1   
    79   76   77 2   
    80   76   81 1   
    81   81   82 1   
    82   81   93 1   
    83   82   83 1   
    84   82   85 1   
    85   82   94 1   
    86   83   84 2   
    87   83  102 1   
    88   85   86 1   
    89   85   95 1   
    90   85   96 1   
    91   86   87 ar  
    92   86   88 ar  
    93   87   89 ar  
    94   87   97 1   
    95   88   90 ar  
    96   88   98 1   
    97   89   91 ar  
    98   89   99 1   
    99   90   91 ar  
   100   90  100 1   
   101   91   92 1   
   102   92  101 1   
   103  102  103 1   
   104  102  110 1   
   105  103  104 1   
   106  103  106 1   
   107  103  111 1   
   108  104  105 2   
   109  104  121 1   
   110  106  107 1   
   111  106  108 1   
   112  106  112 1   
   113  107  109 1   
   114  107  113 1   
   115  107  114 1   
   116  108  115 1   
   117  108  116 1   
   118  108  117 1   
   119  109  118 1   
   120  109  119 1   
   121  109  120 1   
   122  121  122 1   
   123  121  127 1   
   124  122  123 1   
   125  122  125 1   
   126  122  128 1   
   127  123  124 2   
   128  123  132 1   
   129  125  126 1   
   130  125  129 1   
   131  125  130 1   
   132  126  131 1   
   133  132  133 1   
   134  132  137 1   
   135  133  134 1   
   136  133  136 1   
   137  133  138 1   
   138  134  135 2   
   139  134  142 1   
   140  136  139 1   
   141  136  140 1   
   142  136  141 1   
   143  142  143 1   
   144  142  147 1   
   145  143  144 1   
   146  143  146 1   
   147  143  148 1   
   148  144  145 2   
   149  144  152 1   
   150  146  149 1   
   151  146  150 1   
   152  146  151 1   
   153  152  153 1   
   154  152  161 1   
   155  153  154 1   
   156  153  156 1   
   157  153  162 1   
   158  154  155 2   
   159  154  167 1   
   160  156  157 1   
   161  156  163 1   
   162  156  164 1   
   163  157  158 1   
   164  157  165 1   
   165  157  166 1   
   166  158  159 1   
   167  158  160 1   
   168  167  168 1   
   169  167  172 1   
   170  168  169 1   
   171  168  170 1   
   172  168  171 1   
   173  174  175 1   
   174  174  176 1   
@<TRIPOS>SUBSTRUCTURE
     1 MOL         1 TEMP              0 ****  ****    0 ROOT
