@<TRIPOS>MOLECULE
MOL
  179   176     1     0     0
SMALL
resp


@<TRIPOS>ATOM
      1 C1          1.0310    4.3350    6.4140 c3        1 MOL     -0.352902
      2 C2          1.1510    3.6720    4.9900 c         1 MOL      0.713457
      3 O1          2.2580    3.1920    4.6710 o         1 MOL     -0.579958
      4 H1          1.9400    4.1400    6.9820 hc        1 MOL      0.091517
      5 H2          0.8960    5.4110    6.3040 hc        1 MOL      0.091517
      6 H3          0.1760    3.9120    6.9420 hc        1 MOL      0.091517
      7 N1          0.0880    3.6220    4.2260 n         1 MOL     -0.599096
      8 C3          0.0610    3.0100    2.9620 c3        1 MOL      0.025844
      9 C4          0.0250    4.0830    1.9070 c         1 MOL      0.591288
     10 O2         -0.7710    5.0210    1.8920 o         1 MOL     -0.545132
     11 C5         -1.1330    2.0320    2.8590 c3        1 MOL      0.146192
     12 C6         -1.3700    1.4690    1.5120 c         1 MOL      0.582887
     13 O3         -2.5160    1.0500    1.2050 o         1 MOL     -0.754807
     14 O4         -0.4210    1.4120    0.7290 o         1 MOL     -0.754807
     15 H4         -0.8260    3.8510    4.6090 hn        1 MOL      0.317645
     16 H5          1.0110    2.5050    2.7930 h1        1 MOL      0.080455
     17 H6         -2.0300    2.4720    3.2820 hc        1 MOL     -0.005483
     18 H7         -1.0230    1.2020    3.5590 hc        1 MOL     -0.005483
     19 N2          0.7710    3.9570    0.8140 n         1 MOL     -0.298704
     20 C7          0.9470    5.0390   -0.2280 c3        1 MOL     -0.090422
     21 C8         -0.3570    5.5650   -0.8280 c         1 MOL      0.536363
     22 O5         -0.4680    6.7460   -1.1670 o         1 MOL     -0.572601
     23 C9          1.9230    4.5320   -1.3370 c3        1 MOL      0.075564
     24 C10         2.5740    5.5660   -2.2330 c3        1 MOL     -0.042923
     25 C11         3.3950    4.7750   -3.2060 c3        1 MOL      0.067833
     26 C12         4.3210    5.8730   -3.8760 c3        1 MOL     -0.020202
     27 N3          5.2730    5.2580   -4.8810 n4        1 MOL     -0.308192
     28 H8          1.4350    3.2050    0.7550 hn        1 MOL      0.190250
     29 H9          1.4460    5.9080    0.1920 h1        1 MOL      0.085434
     30 H10         1.4230    3.7910   -1.9590 hc        1 MOL      0.000187
     31 H11         2.6910    3.9110   -0.8760 hc        1 MOL      0.000187
     32 H12         3.2270    6.1400   -1.5710 hc        1 MOL      0.033294
     33 H13         1.8840    6.2630   -2.7180 hc        1 MOL      0.033294
     34 H14         2.7530    4.3690   -4.0000 hc        1 MOL      0.024276
     35 H15         4.0500    4.0280   -2.7660 hc        1 MOL      0.024276
     36 H16         4.8500    6.3260   -3.0410 hx        1 MOL      0.090035
     37 H17         3.6400    6.5730   -4.3630 hx        1 MOL      0.090035
     38 H18         5.9100    5.9490   -5.2510 hn        1 MOL      0.313102
     39 H19         5.8520    4.5050   -4.5190 hn        1 MOL      0.313102
     40 H20         4.7580    4.8360   -5.6480 hn        1 MOL      0.313102
     41 N4         -1.3240    4.6520   -0.9100 n         1 MOL     -0.201033
     42 C13        -2.6910    4.8480   -1.5340 c3        1 MOL     -0.010670
     43 C14        -3.8170    4.4470   -0.6140 c         1 MOL      0.440718
     44 O6         -4.9610    4.7430   -0.8190 o         1 MOL     -0.541298
     45 C15        -2.7640    4.1370   -2.9230 c3        1 MOL     -0.298523
     46 C16        -2.4720    2.6280   -2.9670 c         1 MOL      0.719739
     47 O7         -2.3920    2.0280   -4.0880 o         1 MOL     -0.699954
     48 O8         -2.1770    2.0270   -1.9120 o         1 MOL     -0.699954
     49 H21        -1.1640    3.7970   -0.3920 hn        1 MOL      0.128319
     50 H22        -2.8050    5.8790   -1.8440 h1        1 MOL      0.114669
     51 H23        -1.9040    4.4490   -3.5220 hc        1 MOL      0.092756
     52 H24        -3.6960    4.3180   -3.4530 hc        1 MOL      0.092756
     53 N5         -3.5400    3.7640    0.4950 n         1 MOL      0.022848
     54 C17        -4.5920    3.5150    1.4950 c3        1 MOL     -0.309922
     55 C18        -5.7660    2.6440    0.9730 c         1 MOL      0.578005
     56 O9         -6.8430    2.5700    1.5840 o         1 MOL     -0.585921
     57 H25        -2.5610    3.6380    0.7220 hn        1 MOL      0.013574
     58 H26        -4.9350    4.4980    1.8460 h1        1 MOL      0.131519
     59 H27        -4.0940    2.9600    2.2810 h1        1 MOL      0.131519
     60 N6         -5.5440    1.9140   -0.1040 n         1 MOL     -0.238979
     61 C19        -6.4560    1.1200   -0.9360 c3        1 MOL     -0.041433
     62 C20        -7.2090    0.0390   -0.0940 c         1 MOL      0.414394
     63 O10        -8.2610   -0.4660   -0.5610 o         1 MOL     -0.546500
     64 C21        -5.6900    0.6020   -2.1700 c3        1 MOL     -0.162634
     65 C22        -5.0680   -0.7500   -1.8750 c         1 MOL      0.608611
     66 N7         -5.5900   -1.8710   -2.3760 n         1 MOL     -0.773883
     67 O11        -4.0310   -0.8290   -1.1800 o         1 MOL     -0.696384
     68 H28        -4.6460    2.0910   -0.5380 hn        1 MOL      0.246885
     69 H29        -7.1830    1.8580   -1.2610 h1        1 MOL      0.111188
     70 H30        -4.8670    1.2760   -2.4110 hc        1 MOL      0.084470
     71 H31        -6.4140    0.5500   -2.9950 hc        1 MOL      0.084470
     72 H32        -6.2950   -1.8510   -3.0920 hn        1 MOL      0.380397
     73 H33        -5.1820   -2.7080   -1.9840 hn        1 MOL      0.380397
     74 N8         -6.7210   -0.4770    1.0000 n         1 MOL     -0.117257
     75 C23        -7.1690   -1.7730    1.5700 c3        1 MOL     -0.096507
     76 C24        -6.1010   -2.5160    2.1990 c         1 MOL      0.512601
     77 O12        -6.2270   -3.0660    3.3020 o         1 MOL     -0.542780
     78 H34        -6.0760    0.0830    1.5310 hn        1 MOL      0.201266
     79 H35        -7.3940   -2.4070    0.7070 h1        1 MOL      0.084232
     80 H36        -8.0920   -1.6530    2.1350 h1        1 MOL      0.084232
     81 N9         -4.9260   -2.6060    1.4970 n         1 MOL     -0.207337
     82 C25        -3.7960   -3.4090    1.8910 c3        1 MOL     -0.006883
     83 C26        -2.4460   -2.7800    1.4930 c         1 MOL      0.393944
     84 O13        -2.3270   -2.1330    0.4640 o         1 MOL     -0.295811
     85 C27        -3.8390   -4.7980    1.2380 c3        1 MOL     -0.153614
     86 C28        -3.7710   -4.8630   -0.2890 ca        1 MOL      0.070014
     87 C29        -2.4950   -5.0010   -0.9190 ca        1 MOL     -0.162203
     88 C30        -4.9150   -5.0310   -1.0500 ca        1 MOL     -0.162203
     89 C31        -2.3300   -5.1220   -2.2920 ca        1 MOL     -0.179902
     90 C32        -4.7810   -5.1280   -2.4380 ca        1 MOL     -0.179902
     91 C33        -3.5140   -5.2500   -3.0350 ca        1 MOL      0.262651
     92 O14        -3.4710   -5.7250   -4.3300 oh        1 MOL     -0.519469
     93 H37        -4.7590   -2.0730    0.6620 hn        1 MOL      0.108026
     94 H38        -3.8170   -3.5920    2.9590 h1        1 MOL      0.090279
     95 H39        -4.6960   -5.3550    1.6090 hc        1 MOL      0.075099
     96 H40        -3.0060   -5.4420    1.5460 hc        1 MOL      0.075099
     97 H41        -1.6130   -4.9950   -0.2960 ha        1 MOL      0.137236
     98 H42        -5.8710   -4.9780   -0.5510 ha        1 MOL      0.137236
     99 H43        -1.3790   -5.3140   -2.7620 ha        1 MOL      0.122191
    100 H44        -5.6520   -5.1410   -3.0730 ha        1 MOL      0.122191
    101 H45        -2.6000   -5.6930   -4.7420 ho        1 MOL      0.385635
    102 N10        -1.3700   -3.0500    2.2600 n         1 MOL     -0.546474
    103 C34         0.0080   -2.5870    1.9760 c3        1 MOL      0.145326
    104 C35         0.8950   -3.7330    1.6060 c         1 MOL      0.546590
    105 O15         0.7750   -4.8660    2.0990 o         1 MOL     -0.565001
    106 C36         0.5760   -1.7070    3.1670 c3        1 MOL      0.024000
    107 C37         1.8570   -0.9710    2.7420 c3        1 MOL      0.026342
    108 C38         0.5670   -2.4590    4.5190 c3        1 MOL     -0.227367
    109 C39         2.3560   -0.0760    3.8640 c3        1 MOL     -0.344566
    110 H46        -1.5200   -3.6690    3.0500 hn        1 MOL      0.329674
    111 H47        -0.0570   -2.0010    1.0610 h1        1 MOL     -0.032941
    112 H48        -0.0850   -0.8840    3.4200 hc        1 MOL      0.079625
    113 H49         1.5940   -0.3130    1.9050 hc        1 MOL     -0.043708
    114 H50         2.5960   -1.7440    2.5360 hc        1 MOL     -0.043708
    115 H51         1.3270   -3.2310    4.5530 hc        1 MOL      0.056903
    116 H52         0.7260   -1.7240    5.3040 hc        1 MOL      0.056903
    117 H53        -0.3610   -2.9990    4.6390 hc        1 MOL      0.056903
    118 H54         2.6390   -0.6280    4.7600 hc        1 MOL      0.094588
    119 H55         3.2320    0.5390    3.6430 hc        1 MOL      0.094588
    120 H56         1.5370    0.5490    4.2040 hc        1 MOL      0.094588
    121 N11         1.8090   -3.3730    0.6830 n         1 MOL     -0.365475
    122 C40         2.8700   -4.2670    0.1120 c3        1 MOL      0.079145
    123 C41         4.2480   -3.5830    0.2690 c         1 MOL      0.403350
    124 O16         4.3720   -2.4440    0.6490 o         1 MOL     -0.325373
    125 C42         2.6000   -4.4820   -1.4280 c3        1 MOL      0.176687
    126 O17         1.4190   -5.2770   -1.5610 oh        1 MOL     -0.643678
    127 H57         1.8030   -2.4050    0.3930 hn        1 MOL      0.333761
    128 H58         3.0140   -5.2180    0.6110 h1        1 MOL      0.088971
    129 H59         3.4480   -5.0090   -1.8530 h1        1 MOL      0.008630
    130 H60         2.5140   -3.5320   -1.9570 h1        1 MOL      0.008630
    131 H61         1.6140   -6.0160   -2.1450 ho        1 MOL      0.419268
    132 N12         5.3550   -4.3030   -0.0440 n         1 MOL     -0.554196
    133 C43         6.6930   -4.0230    0.5110 c3        1 MOL      0.255766
    134 C44         7.4180   -2.7210    0.1340 c         1 MOL      0.390089
    135 O18         7.9140   -1.9940    0.9490 o         1 MOL     -0.520205
    136 C45         7.6000   -5.1760    0.1770 c3        1 MOL     -0.405946
    137 H62         5.1850   -5.2370   -0.3920 hn        1 MOL      0.300863
    138 H63         6.7010   -4.1150    1.5960 h1        1 MOL      0.059131
    139 H64         8.5390   -5.1490    0.7400 hc        1 MOL      0.113877
    140 H65         7.1780   -6.1520    0.4330 hc        1 MOL      0.113877
    141 H66         8.0340   -5.0560   -0.8140 hc        1 MOL      0.113877
    142 N13         7.4280   -2.4040   -1.1240 n         1 MOL     -0.174895
    143 C46         8.0870   -1.1690   -1.5710 c3        1 MOL     -0.036691
    144 C47         7.2650    0.0760   -1.1400 c         1 MOL      0.403056
    145 O19         7.7480    1.2090   -1.1390 o         1 MOL     -0.497195
    146 C48         8.1910   -1.2640   -3.1250 c3        1 MOL     -0.292906
    147 H67         6.9890   -2.9530   -1.8550 hn        1 MOL      0.199263
    148 H68         9.1280   -1.0730   -1.2700 h1        1 MOL      0.138193
    149 H69         7.2380   -1.4780   -3.6070 hc        1 MOL      0.090094
    150 H70         8.5150   -0.2960   -3.5260 hc        1 MOL      0.090094
    151 H71         8.9170   -2.0000   -3.4610 hc        1 MOL      0.090094
    152 N14         5.9580   -0.0890   -0.7830 n         1 MOL     -0.161160
    153 C49         5.0970    1.0040   -0.2960 c3        1 MOL     -0.208941
    154 C50         5.6290    1.3040    1.1260 c         1 MOL      0.360179
    155 O20         5.7780    2.4750    1.5840 o         1 MOL     -0.559717
    156 C51         3.6270    0.6850   -0.2280 c3        1 MOL     -0.048807
    157 C52         3.0760    0.2310   -1.6080 c3        1 MOL      0.111723
    158 C53         1.5850   -0.0900   -1.5970 c         1 MOL      0.611312
    159 O21         0.9230    0.1400   -2.6120 o         1 MOL     -0.664455
    160 O22         1.1550   -0.7700   -0.6450 o         1 MOL     -0.664455
    161 H72         5.5730   -1.0200   -0.7270 hn        1 MOL      0.127646
    162 H73         5.1970    1.8700   -0.9420 h1        1 MOL      0.124287
    163 H74         3.1050    1.5020    0.2650 hc        1 MOL      0.089793
    164 H75         3.6690   -0.1920    0.4230 hc        1 MOL      0.089793
    165 H76         3.6740   -0.6180   -1.9020 hc        1 MOL     -0.073072
    166 H77         3.2590    1.0030   -2.3620 hc        1 MOL     -0.073072
    167 N15         5.8720    0.2890    1.9010 n         1 MOL      0.199698
    168 C54         6.4640    0.4040    3.2280 c3        1 MOL     -0.405223
    169 H78         6.0590   -0.3750    3.8750 h1        1 MOL      0.137149
    170 H79         7.5450    0.2890    3.1560 h1        1 MOL      0.137149
    171 H80         6.2300    1.3820    3.6480 h1        1 MOL      0.137149
    172 H81         5.7300   -0.6100    1.4660 hn        1 MOL      0.026860
    173 Ca1        -1.3230   -0.1730   -1.0410 Ca        1 MOL      1.731032
    174 O23        -0.5360   -2.7800   -1.8510 oh        1 MOL     -0.831653
    175 H82        -0.6310   -3.7090   -1.6440 ho        1 MOL      0.393966
    176 H83         0.1650   -2.7410   -2.4960 ho        1 MOL      0.393966
    177 O24        -2.2120   -0.7610   -3.6020 oh        1 MOL     -0.831653
    178 H84        -2.6490   -1.4730   -4.0620 ho        1 MOL      0.393966
    179 H85        -2.4530    0.0270   -4.0960 ho        1 MOL      0.393966
@<TRIPOS>BOND
     1    1    2 1   
     2    1    4 1   
     3    1    5 1   
     4    1    6 1   
     5    2    3 2   
     6    2    7 1   
     7    7    8 1   
     8    7   15 1   
     9    8    9 1   
    10    8   11 1   
    11    8   16 1   
    12    9   10 2   
    13    9   19 1   
    14   11   12 1   
    15   11   17 1   
    16   11   18 1   
    17   12   13 1   
    18   12   14 1   
    19   19   20 1   
    20   19   28 1   
    21   20   21 1   
    22   20   23 1   
    23   20   29 1   
    24   21   22 2   
    25   21   41 1   
    26   23   24 1   
    27   23   30 1   
    28   23   31 1   
    29   24   25 1   
    30   24   32 1   
    31   24   33 1   
    32   25   26 1   
    33   25   34 1   
    34   25   35 1   
    35   26   27 1   
    36   26   36 1   
    37   26   37 1   
    38   27   38 1   
    39   27   39 1   
    40   27   40 1   
    41   41   42 1   
    42   41   49 1   
    43   42   43 1   
    44   42   45 1   
    45   42   50 1   
    46   43   44 2   
    47   43   53 1   
    48   45   46 1   
    49   45   51 1   
    50   45   52 1   
    51   46   47 1   
    52   46   48 1   
    53   53   54 1   
    54   53   57 1   
    55   54   55 1   
    56   54   58 1   
    57   54   59 1   
    58   55   56 2   
    59   55   60 1   
    60   60   61 1   
    61   60   68 1   
    62   61   62 1   
    63   61   64 1   
    64   61   69 1   
    65   62   63 2   
    66   62   74 1   
    67   64   65 1   
    68   64   70 1   
    69   64   71 1   
    70   65   66 1   
    71   65   67 2   
    72   66   72 1   
    73   66   73 1   
    74   74   75 1   
    75   74   78 1   
    76   75   76 1   
    77   75   79 1   
    78   75   80 1   
    79   76   77 2   
    80   76   81 1   
    81   81   82 1   
    82   81   93 1   
    83   82   83 1   
    84   82   85 1   
    85   82   94 1   
    86   83   84 2   
    87   83  102 1   
    88   85   86 1   
    89   85   95 1   
    90   85   96 1   
    91   86   87 ar  
    92   86   88 ar  
    93   87   89 ar  
    94   87   97 1   
    95   88   90 ar  
    96   88   98 1   
    97   89   91 ar  
    98   89   99 1   
    99   90   91 ar  
   100   90  100 1   
   101   91   92 1   
   102   92  101 1   
   103  102  103 1   
   104  102  110 1   
   105  103  104 1   
   106  103  106 1   
   107  103  111 1   
   108  104  105 2   
   109  104  121 1   
   110  106  107 1   
   111  106  108 1   
   112  106  112 1   
   113  107  109 1   
   114  107  113 1   
   115  107  114 1   
   116  108  115 1   
   117  108  116 1   
   118  108  117 1   
   119  109  118 1   
   120  109  119 1   
   121  109  120 1   
   122  121  122 1   
   123  121  127 1   
   124  122  123 1   
   125  122  125 1   
   126  122  128 1   
   127  123  124 2   
   128  123  132 1   
   129  125  126 1   
   130  125  129 1   
   131  125  130 1   
   132  126  131 1   
   133  132  133 1   
   134  132  137 1   
   135  133  134 1   
   136  133  136 1   
   137  133  138 1   
   138  134  135 2   
   139  134  142 1   
   140  136  139 1   
   141  136  140 1   
   142  136  141 1   
   143  142  143 1   
   144  142  147 1   
   145  143  144 1   
   146  143  146 1   
   147  143  148 1   
   148  144  145 2   
   149  144  152 1   
   150  146  149 1   
   151  146  150 1   
   152  146  151 1   
   153  152  153 1   
   154  152  161 1   
   155  153  154 1   
   156  153  156 1   
   157  153  162 1   
   158  154  155 2   
   159  154  167 1   
   160  156  157 1   
   161  156  163 1   
   162  156  164 1   
   163  157  158 1   
   164  157  165 1   
   165  157  166 1   
   166  158  159 1   
   167  158  160 1   
   168  167  168 1   
   169  167  172 1   
   170  168  169 1   
   171  168  170 1   
   172  168  171 1   
   173  174  175 1   
   174  174  176 1   
   175  177  178 1   
   176  177  179 1   
@<TRIPOS>SUBSTRUCTURE
     1 MOL         1 TEMP              0 ****  ****    0 ROOT
