@<TRIPOS>MOLECULE
MOL
  189   185     1     0     0
SMALL
resp


@<TRIPOS>ATOM
      1 C1          0.4320   -4.7420    5.7090 c3        1 MOL     -0.393693
      2 C2          0.9720   -4.0610    4.4870 c         1 MOL      0.736802
      3 O1          1.1820   -2.8500    4.4810 o         1 MOL     -0.616798
      4 H1          0.7700   -4.2110    6.6000 hc        1 MOL      0.097319
      5 H2         -0.6570   -4.7390    5.6760 hc        1 MOL      0.097319
      6 H3          0.7920   -5.7710    5.7410 hc        1 MOL      0.097319
      7 N1          1.3050   -4.8020    3.4350 n         1 MOL     -0.569118
      8 C3          1.8440   -4.3100    2.1620 c3        1 MOL      0.354375
      9 C4          1.3760   -5.2500    1.0630 c         1 MOL      0.458531
     10 O2          1.2630   -6.4590    1.3400 o         1 MOL     -0.595633
     11 C5          3.3890   -4.1530    2.2470 c3        1 MOL     -0.326938
     12 C6          3.9890   -3.2120    1.1940 c         1 MOL      0.851788
     13 O3          3.3070   -2.7440    0.2730 o         1 MOL     -0.733266
     14 O4          5.1930   -3.1010    1.0900 o         1 MOL     -0.733266
     15 H4          1.1360   -5.7920    3.4250 hn        1 MOL      0.281382
     16 H5          1.4290   -3.3210    1.9930 h1        1 MOL     -0.071927
     17 H6          3.8650   -5.1150    2.0590 hc        1 MOL      0.056832
     18 H7          3.6930   -3.8550    3.2500 hc        1 MOL      0.056832
     19 N2          1.1760   -4.7050   -0.1090 n         1 MOL     -0.281377
     20 C7          0.7860   -5.4190   -1.3530 c3        1 MOL     -0.066678
     21 C8          1.7670   -5.0660   -2.4230 c         1 MOL      0.656295
     22 O5          1.9410   -5.9460   -3.2760 o         1 MOL     -0.588855
     23 C9         -0.6400   -5.0330   -1.7720 c3        1 MOL      0.191932
     24 C10        -1.6480   -5.1860   -0.5950 c3        1 MOL     -0.000358
     25 C11        -1.0900   -5.8560   -3.0070 c3        1 MOL     -0.245398
     26 C12        -2.9490   -4.4590   -1.0050 c3        1 MOL     -0.203254
     27 H8          1.2040   -3.7010   -0.1810 hn        1 MOL      0.227498
     28 H9          0.7140   -6.4900   -1.2070 h1        1 MOL      0.066741
     29 H10        -0.5900   -3.9650   -2.0160 hc        1 MOL      0.043963
     30 H11        -1.2240   -4.7090    0.2910 hc        1 MOL     -0.017072
     31 H12        -1.8390   -6.2410   -0.3830 hc        1 MOL     -0.017072
     32 H13        -2.0660   -5.6040   -3.4070 hc        1 MOL      0.050457
     33 H14        -0.3190   -5.8050   -3.7740 hc        1 MOL      0.050457
     34 H15        -1.1880   -6.9380   -2.8970 hc        1 MOL      0.050457
     35 H16        -3.4840   -4.9890   -1.7890 hc        1 MOL      0.063195
     36 H17        -3.5590   -4.4620   -0.1040 hc        1 MOL      0.063195
     37 H18        -2.7150   -3.4660   -1.3800 hc        1 MOL      0.063195
     38 N3          2.4460   -3.8990   -2.3620 n         1 MOL     -0.675912
     39 C13         2.9990   -3.3220   -3.5650 c3        1 MOL      0.172098
     40 C14         4.4690   -2.9200   -3.2590 c         1 MOL      0.343764
     41 O6          5.1500   -2.5140   -4.2200 o         1 MOL     -0.555292
     42 C15         2.1630   -2.1490   -4.0760 c3        1 MOL     -0.173912
     43 C16         1.9510   -1.0090   -3.0810 c         1 MOL      0.734558
     44 O7          2.5540   -0.9960   -2.0020 o         1 MOL     -0.675124
     45 O8          1.1290   -0.1250   -3.4130 o         1 MOL     -0.675124
     46 H19         2.3680   -3.3100   -1.5550 hn        1 MOL      0.372549
     47 H20         3.0230   -4.0420   -4.3810 h1        1 MOL      0.068397
     48 H21         1.2010   -2.5800   -4.3410 hc        1 MOL      0.048963
     49 H22         2.4940   -1.7230   -5.0290 hc        1 MOL      0.048963
     50 N4          4.9640   -2.8880   -1.9940 n         1 MOL     -0.137750
     51 C17         6.4170   -2.6370   -1.6920 c3        1 MOL     -0.501486
     52 C18         6.9540   -1.2190   -2.0000 c         1 MOL      0.515565
     53 O9          8.1850   -1.0180   -2.1380 o         1 MOL     -0.608425
     54 H23         4.3620   -3.1670   -1.2400 hn        1 MOL      0.222624
     55 H24         6.9970   -3.2360   -2.3980 h1        1 MOL      0.196031
     56 H25         6.6010   -2.9690   -0.6710 h1        1 MOL      0.196031
     57 N5          6.0280   -0.2510   -2.1430 n         1 MOL     -0.042358
     58 C19         6.2900    1.1550   -2.5220 c3        1 MOL     -0.216776
     59 C20         6.9950    1.9820   -1.4460 c         1 MOL      0.510161
     60 O10         7.6360    2.9580   -1.8280 o         1 MOL     -0.524348
     61 C21         5.1290    1.9090   -3.0970 c3        1 MOL     -0.070584
     62 C22         3.8150    2.1810   -2.2530 c         1 MOL      0.759154
     63 O11         3.6810    1.5480   -1.1760 o         1 MOL     -0.697724
     64 O12         2.9570    2.9740   -2.7030 o         1 MOL     -0.697724
     65 H26         5.0690   -0.5400   -2.0160 hn        1 MOL      0.176681
     66 H27         6.8910    1.0300   -3.4190 h1        1 MOL      0.118180
     67 H28         4.6890    1.3370   -3.9210 hc        1 MOL      0.024611
     68 H29         5.4510    2.8670   -3.5120 hc        1 MOL      0.024611
     69 N6          6.9320    1.5450   -0.1360 n         1 MOL     -0.280065
     70 C23         7.3210    2.2170    1.0420 c3        1 MOL      0.061247
     71 C24         6.3220    3.2080    1.6580 c         1 MOL      0.512305
     72 O13         6.6200    4.0530    2.5070 o         1 MOL     -0.604518
     73 H30         6.4660    0.6660    0.0490 hn        1 MOL      0.207101
     74 H31         8.1990    2.7690    0.7180 h1        1 MOL      0.009823
     75 H32         7.6320    1.5210    1.8260 h1        1 MOL      0.009823
     76 N7          5.0070    3.0680    1.2540 n         1 MOL     -0.223304
     77 C25         3.8920    3.8980    1.7310 c3        1 MOL     -0.071210
     78 C26         2.6870    3.1060    2.1560 c         1 MOL      0.526040
     79 O14         2.6320    1.9090    1.7630 o         1 MOL     -0.591659
     80 C27         3.5800    4.9350    0.6290 c3        1 MOL     -0.050464
     81 C28         4.5410    6.0830    0.4170 c3        1 MOL     -0.085326
     82 C29         4.1430    7.0520   -0.6050 c         1 MOL      0.647171
     83 N8          4.4490    8.2940   -0.3850 n         1 MOL     -0.785727
     84 O15         3.6910    6.7320   -1.6950 o         1 MOL     -0.541466
     85 H33         4.8070    2.2850    0.6490 hn        1 MOL      0.177820
     86 H34         4.1070    4.4130    2.6640 h1        1 MOL      0.052117
     87 H35         2.5500    5.2890    0.7540 hc        1 MOL      0.039059
     88 H36         3.6550    4.3640   -0.2910 hc        1 MOL      0.039059
     89 H37         5.5550    5.7610    0.1900 hc        1 MOL      0.038624
     90 H38         4.4770    6.6210    1.3590 hc        1 MOL      0.038624
     91 H39         5.0000    8.6660    0.3720 hn        1 MOL      0.335166
     92 H40         4.1690    8.9170   -1.1260 hn        1 MOL      0.335166
     93 N9          1.6920    3.6100    2.8910 n         1 MOL     -0.413898
     94 C30         0.3980    2.8840    3.0690 c3        1 MOL      0.047062
     95 C31        -0.6850    3.4100    2.0580 c         1 MOL      0.752812
     96 O16        -0.6680    4.5370    1.7010 o         1 MOL     -0.606124
     97 C32        -0.1980    3.0400    4.5310 c3        1 MOL      0.146040
     98 C33        -1.3430    2.0810    4.8930 c3        1 MOL     -0.264660
     99 C34         0.8740    2.9080    5.6570 c3        1 MOL     -0.264660
    100 H41         1.7970    4.5390    3.2720 hn        1 MOL      0.266234
    101 H42         0.5270    1.8510    2.7450 h1        1 MOL      0.068818
    102 H43        -0.5760    4.0600    4.5260 hc        1 MOL     -0.024646
    103 H44        -2.2540    2.5220    4.4940 hc        1 MOL      0.060186
    104 H45        -1.1940    1.0390    4.6070 hc        1 MOL      0.060186
    105 H46        -1.4030    2.0280    5.9720 hc        1 MOL      0.060186
    106 H47         1.0150    1.8550    5.8920 hc        1 MOL      0.060186
    107 H48         1.8320    3.3900    5.4700 hc        1 MOL      0.060186
    108 H49         0.6530    3.3630    6.6290 hc        1 MOL      0.060186
    109 N10        -1.6010    2.4750    1.7040 n         1 MOL     -0.850895
    110 C35        -2.6860    2.7760    0.7250 c3        1 MOL      0.796306
    111 C36        -4.0450    2.2440    1.1880 c         1 MOL      0.087100
    112 O17        -4.1380    1.5120    2.1770 o         1 MOL     -0.437533
    113 C37        -2.1090    2.4170   -0.6230 c3        1 MOL     -0.590206
    114 C38        -3.2260    2.4650   -1.6330 c         1 MOL      0.951675
    115 N11        -3.4220    3.5130   -2.2860 n         1 MOL     -0.805316
    116 O18        -3.9020    1.5030   -1.8670 o         1 MOL     -0.644213
    117 H50        -1.4640    1.5050    1.9820 hn        1 MOL      0.483947
    118 H51        -2.9390    3.8310    0.6490 h1        1 MOL     -0.126391
    119 H52        -1.6620    1.4290   -0.6220 hc        1 MOL      0.152229
    120 H53        -1.4180    3.2210   -0.8940 hc        1 MOL      0.152229
    121 H54        -3.0140    4.4070   -2.0370 hn        1 MOL      0.353902
    122 H55        -4.1230    3.4780   -3.0130 hn        1 MOL      0.353902
    123 N12        -5.1390    2.6360    0.5060 n         1 MOL     -0.065066
    124 C39        -6.5620    2.3180    0.8660 c3        1 MOL      0.075152
    125 C40        -6.7290    0.8020    0.8560 c         1 MOL      0.498995
    126 O19        -7.2700    0.2960    1.8170 o         1 MOL     -0.585191
    127 C41        -7.5930    3.0810    0.0170 c3        1 MOL     -0.340913
    128 C42        -7.5440    3.2370   -1.4970 ca        1 MOL      0.164115
    129 C43        -8.1300    2.3370   -2.4100 ca        1 MOL     -0.214188
    130 C44        -6.7720    4.3590   -1.9730 ca        1 MOL     -0.214188
    131 C45        -7.8330    2.4700   -3.7560 ca        1 MOL     -0.278221
    132 C46        -6.5730    4.4630   -3.3520 ca        1 MOL     -0.278221
    133 C47        -7.0760    3.5480   -4.2460 ca        1 MOL      0.423455
    134 O20        -6.9640    3.7800   -5.6550 oh        1 MOL     -0.601739
    135 H56        -4.9860    3.2850   -0.2490 hn        1 MOL      0.064292
    136 H57        -6.6440    2.6700    1.8890 h1        1 MOL      0.075969
    137 H58        -7.6630    4.0490    0.5320 hc        1 MOL      0.092664
    138 H59        -8.4870    2.4790    0.1760 hc        1 MOL      0.092664
    139 H60        -8.7790    1.5850   -1.9890 ha        1 MOL      0.159022
    140 H61        -6.2660    5.1040   -1.3890 ha        1 MOL      0.159022
    141 H62        -8.3070    1.8880   -4.5230 ha        1 MOL      0.150302
    142 H63        -5.9860    5.3050   -3.6930 ha        1 MOL      0.150302
    143 H64        -7.5280    3.2350   -6.2000 ho        1 MOL      0.422324
    144 N13        -6.2340    0.0970   -0.1110 n         1 MOL     -0.221776
    145 C48        -6.3390   -1.3120   -0.3130 c3        1 MOL     -0.140317
    146 C49        -5.6680   -2.0980    0.8540 c         1 MOL      0.401292
    147 O21        -5.9140   -3.3090    0.9570 o         1 MOL     -0.524597
    148 C50        -5.7010   -1.7840   -1.6090 c3        1 MOL      0.155654
    149 C51        -6.4560   -1.1600   -2.7990 c3        1 MOL     -0.209268
    150 C52        -5.8400   -1.8670   -4.0070 c         1 MOL      0.713464
    151 O22        -4.9970   -1.3750   -4.7260 o         1 MOL     -0.733398
    152 O23        -6.2270   -3.0350   -4.2220 o         1 MOL     -0.733398
    153 H65        -5.6180    0.5340   -0.7820 hn        1 MOL      0.207982
    154 H66        -7.3900   -1.6060   -0.2740 h1        1 MOL      0.106378
    155 H67        -5.8680   -2.8570   -1.6720 hc        1 MOL      0.011613
    156 H68        -4.6670   -1.4250   -1.5500 hc        1 MOL      0.011613
    157 H69        -6.2390   -0.0960   -2.9340 hc        1 MOL      0.023282
    158 H70        -7.4830   -1.5200   -2.7160 hc        1 MOL      0.023282
    159 N14        -4.7370   -1.4940    1.6240 n         1 MOL     -0.292307
    160 C53        -3.8380   -2.1030    2.6800 c3        1 MOL     -0.198787
    161 C54        -4.5730   -1.8100    4.0070 c         1 MOL      0.590125
    162 O24        -4.4670   -2.6170    4.9230 o         1 MOL     -0.583128
    163 C55        -2.3930   -1.5740    2.6010 c3        1 MOL      0.102395
    164 C56        -1.8260   -1.7650    1.2280 c3        1 MOL     -0.108946
    165 C57        -0.4270   -1.2490    1.0350 c         1 MOL      0.885328
    166 O25        -0.0450   -0.2090    1.5680 o         1 MOL     -0.794342
    167 O26         0.2470   -1.8100    0.1490 o         1 MOL     -0.794342
    168 H71        -4.4720   -0.5500    1.4020 hn        1 MOL      0.232653
    169 H72        -3.9150   -3.1750    2.5020 h1        1 MOL      0.139047
    170 H73        -1.7590   -2.0520    3.3470 hc        1 MOL     -0.018149
    171 H74        -2.3990   -0.4840    2.7080 hc        1 MOL     -0.018149
    172 H75        -2.3860   -1.1510    0.5280 hc        1 MOL      0.044136
    173 H76        -1.7880   -2.8460    1.0540 hc        1 MOL      0.044136
    174 N15        -5.3800   -0.6860    4.1160 n         1 MOL     -0.243011
    175 C58        -6.0110   -0.2170    5.3690 c3        1 MOL     -0.217705
    176 H77        -7.0090    0.1620    5.1530 h1        1 MOL      0.084514
    177 H78        -6.0820   -1.0460    6.0730 h1        1 MOL      0.084514
    178 H79        -5.4060    0.5790    5.8050 h1        1 MOL      0.084514
    179 H80        -5.5270   -0.2190    3.2280 hn        1 MOL      0.204012
    180 Ca1         2.4300   -0.2710    0.4020 Ca        1 MOL      1.667053
    181 O27         5.0140   -0.3620    1.2130 oh        1 MOL     -0.853754
    182 H81         5.2210   -0.0580    2.0970 ho        1 MOL      0.408255
    183 H82         5.2060   -1.3030    1.2370 ho        1 MOL      0.408255
    184 O28         1.0350    1.5330   -1.3180 oh        1 MOL     -0.853754
    185 O29         2.4500   -1.0170    2.9700 oh        1 MOL     -0.853754
    186 H83         1.7420    2.1760   -1.3320 ho        1 MOL      0.408255
    187 H84         1.6040   -1.3560    3.2680 ho        1 MOL      0.408255
    188 H85         1.1550    1.0180   -2.1180 ho        1 MOL      0.408255
    189 H86         3.0740   -1.3110    3.6390 ho        1 MOL      0.408255
@<TRIPOS>BOND
     1    1    2 1   
     2    1    4 1   
     3    1    5 1   
     4    1    6 1   
     5    2    3 2   
     6    2    7 1   
     7    7    8 1   
     8    7   15 1   
     9    8    9 1   
    10    8   11 1   
    11    8   16 1   
    12    9   10 2   
    13    9   19 1   
    14   11   12 1   
    15   11   17 1   
    16   11   18 1   
    17   12   13 1   
    18   12   14 1   
    19   19   20 1   
    20   19   27 1   
    21   20   21 1   
    22   20   23 1   
    23   20   28 1   
    24   21   22 2   
    25   21   38 1   
    26   23   24 1   
    27   23   25 1   
    28   23   29 1   
    29   24   26 1   
    30   24   30 1   
    31   24   31 1   
    32   25   32 1   
    33   25   33 1   
    34   25   34 1   
    35   26   35 1   
    36   26   36 1   
    37   26   37 1   
    38   38   39 1   
    39   38   46 1   
    40   39   40 1   
    41   39   42 1   
    42   39   47 1   
    43   40   41 2   
    44   40   50 1   
    45   42   43 1   
    46   42   48 1   
    47   42   49 1   
    48   43   44 1   
    49   43   45 1   
    50   50   51 1   
    51   50   54 1   
    52   51   52 1   
    53   51   55 1   
    54   51   56 1   
    55   52   53 2   
    56   52   57 1   
    57   57   58 1   
    58   57   65 1   
    59   58   59 1   
    60   58   61 1   
    61   58   66 1   
    62   59   60 2   
    63   59   69 1   
    64   61   62 1   
    65   61   67 1   
    66   61   68 1   
    67   62   63 1   
    68   62   64 1   
    69   69   70 1   
    70   69   73 1   
    71   70   71 1   
    72   70   74 1   
    73   70   75 1   
    74   71   72 2   
    75   71   76 1   
    76   76   77 1   
    77   76   85 1   
    78   77   78 1   
    79   77   80 1   
    80   77   86 1   
    81   78   79 2   
    82   78   93 1   
    83   80   81 1   
    84   80   87 1   
    85   80   88 1   
    86   81   82 1   
    87   81   89 1   
    88   81   90 1   
    89   82   83 1   
    90   82   84 2   
    91   83   91 1   
    92   83   92 1   
    93   93   94 1   
    94   93  100 1   
    95   94   95 1   
    96   94   97 1   
    97   94  101 1   
    98   95   96 2   
    99   95  109 1   
   100   97   98 1   
   101   97   99 1   
   102   97  102 1   
   103   98  103 1   
   104   98  104 1   
   105   98  105 1   
   106   99  106 1   
   107   99  107 1   
   108   99  108 1   
   109  109  110 1   
   110  109  117 1   
   111  110  111 1   
   112  110  113 1   
   113  110  118 1   
   114  111  112 2   
   115  111  123 1   
   116  113  114 1   
   117  113  119 1   
   118  113  120 1   
   119  114  115 1   
   120  114  116 2   
   121  115  121 1   
   122  115  122 1   
   123  123  124 1   
   124  123  135 1   
   125  124  125 1   
   126  124  127 1   
   127  124  136 1   
   128  125  126 2   
   129  125  144 1   
   130  127  128 1   
   131  127  137 1   
   132  127  138 1   
   133  128  129 ar  
   134  128  130 ar  
   135  129  131 ar  
   136  129  139 1   
   137  130  132 ar  
   138  130  140 1   
   139  131  133 ar  
   140  131  141 1   
   141  132  133 ar  
   142  132  142 1   
   143  133  134 1   
   144  134  143 1   
   145  144  145 1   
   146  144  153 1   
   147  145  146 1   
   148  145  148 1   
   149  145  154 1   
   150  146  147 2   
   151  146  159 1   
   152  148  149 1   
   153  148  155 1   
   154  148  156 1   
   155  149  150 1   
   156  149  157 1   
   157  149  158 1   
   158  150  151 1   
   159  150  152 1   
   160  159  160 1   
   161  159  168 1   
   162  160  161 1   
   163  160  163 1   
   164  160  169 1   
   165  161  162 2   
   166  161  174 1   
   167  163  164 1   
   168  163  170 1   
   169  163  171 1   
   170  164  165 1   
   171  164  172 1   
   172  164  173 1   
   173  165  166 1   
   174  165  167 1   
   175  174  175 1   
   176  174  179 1   
   177  175  176 1   
   178  175  177 1   
   179  175  178 1   
   180  181  182 1   
   181  181  183 1   
   182  184  186 1   
   183  184  188 1   
   184  185  187 1   
   185  185  189 1   
@<TRIPOS>SUBSTRUCTURE
     1 MOL         1 TEMP              0 ****  ****    0 ROOT
