@<TRIPOS>MOLECULE
MOL
  179   176     1     0     0
SMALL
resp


@<TRIPOS>ATOM
      1 C1          0.9120    4.7060    4.6190 c3        1 MOL     -0.487547
      2 C2          0.5940    4.1110    3.2850 c         1 MOL      0.683712
      3 O1          1.3360    4.2310    2.3340 o         1 MOL     -0.567326
      4 H1          1.9780    4.6020    4.8180 hc        1 MOL      0.115193
      5 H2          0.6440    5.7630    4.6190 hc        1 MOL      0.115193
      6 H3          0.3470    4.1870    5.3930 hc        1 MOL      0.115193
      7 N1         -0.5440    3.4440    3.2510 n         1 MOL     -0.425130
      8 C3         -1.1340    2.9390    2.0680 c3        1 MOL      0.298041
      9 C4         -1.7650    4.0960    1.3250 c         1 MOL      0.167819
     10 O2         -2.9710    4.3690    1.5550 o         1 MOL     -0.467773
     11 C5         -2.1970    1.8080    2.2940 c3        1 MOL     -0.247666
     12 C6         -2.9920    1.3790    1.0680 c         1 MOL      0.801385
     13 O3         -2.5120    1.5420   -0.0560 o         1 MOL     -0.708014
     14 O4         -4.0950    0.7950    1.3100 o         1 MOL     -0.708014
     15 H4         -1.0400    3.2130    4.1010 hn        1 MOL      0.274508
     16 H5         -0.2880    2.6040    1.4620 h1        1 MOL     -0.032411
     17 H6         -2.8840    2.0770    3.0970 hc        1 MOL      0.044395
     18 H7         -1.5670    0.9770    2.5930 hc        1 MOL      0.044395
     19 N2         -0.9990    4.7510    0.4650 n         1 MOL     -0.143331
     20 C7         -1.3320    6.0060   -0.2320 c3        1 MOL     -0.052529
     21 C8         -2.4830    5.7390   -1.2280 c         1 MOL      0.457087
     22 O5         -3.0390    6.7210   -1.6710 o         1 MOL     -0.556851
     23 C9         -0.0990    6.5570   -0.9160 c3        1 MOL     -0.216642
     24 C10         1.1290    6.8640   -0.0490 c3        1 MOL      0.032368
     25 C11         0.7650    7.8610    1.1160 c3        1 MOL     -0.147021
     26 C12         1.9640    8.0700    2.1340 c3        1 MOL      0.116115
     27 N3          1.5020    9.0650    3.1700 n4        1 MOL     -0.466223
     28 H8         -0.1450    4.2770    0.2240 hn        1 MOL      0.289651
     29 H9         -1.6610    6.6730    0.5660 h1        1 MOL      0.091534
     30 H10        -0.3300    7.5160   -1.3760 hc        1 MOL      0.103269
     31 H11         0.2020    5.8200   -1.6650 hc        1 MOL      0.103269
     32 H12         1.8650    7.2330   -0.7590 hc        1 MOL      0.041581
     33 H13         1.5590    5.9740    0.4100 hc        1 MOL      0.041581
     34 H14        -0.0040    7.4340    1.7620 hc        1 MOL      0.066568
     35 H15         0.4090    8.8050    0.7220 hc        1 MOL      0.066568
     36 H16         2.9050    8.3050    1.6370 hx        1 MOL      0.069475
     37 H17         2.1500    7.1140    2.6160 hx        1 MOL      0.069475
     38 H18         2.2090    9.0890    3.8920 hn        1 MOL      0.350824
     39 H19         1.4310   10.0130    2.8400 hn        1 MOL      0.350824
     40 H20         0.6910    8.7020    3.6470 hn        1 MOL      0.350824
     41 N4         -2.9150    4.5050   -1.5770 n         1 MOL     -0.182047
     42 C13        -4.0560    4.2520   -2.5050 c3        1 MOL      0.062971
     43 C14        -5.2970    3.7230   -1.8480 c         1 MOL      0.332185
     44 O6         -6.3560    3.5960   -2.4380 o         1 MOL     -0.548294
     45 C15        -3.6700    3.3480   -3.6730 c3        1 MOL     -0.215914
     46 C16        -2.8960    2.1040   -3.2170 c         1 MOL      0.758985
     47 O7         -3.4940    1.0060   -3.1450 o         1 MOL     -0.751036
     48 O8         -1.6640    2.2160   -2.9870 o         1 MOL     -0.751036
     49 H21        -2.3950    3.7110   -1.2270 hn        1 MOL      0.111540
     50 H22        -4.3520    5.1540   -3.0280 h1        1 MOL      0.108989
     51 H23        -3.0320    3.9690   -4.3010 hc        1 MOL      0.065176
     52 H24        -4.5560    3.0700   -4.2560 hc        1 MOL      0.065176
     53 N5         -5.2230    3.2230   -0.6350 n         1 MOL     -0.034120
     54 C17        -6.3970    2.7530    0.1790 c3        1 MOL     -0.310257
     55 C18        -6.8760    1.3210   -0.0870 c         1 MOL      0.631102
     56 O9         -7.9170    1.0390    0.5280 o         1 MOL     -0.573624
     57 H25        -4.2990    3.2860   -0.2300 hn        1 MOL      0.104220
     58 H26        -7.2230    3.3700   -0.1890 h1        1 MOL      0.138548
     59 H27        -6.1890    2.9640    1.2230 h1        1 MOL      0.138548
     60 N6         -6.1720    0.5050   -0.8920 n         1 MOL     -0.386366
     61 C19        -6.5170   -0.8940   -1.2360 c3        1 MOL      0.011295
     62 C20        -6.4430   -1.8920   -0.0520 c         1 MOL      0.283142
     63 O10        -7.0280   -3.0450   -0.1550 o         1 MOL     -0.482398
     64 C21        -5.7370   -1.3730   -2.4180 c3        1 MOL     -0.247074
     65 C22        -4.3610   -1.9690   -2.0040 c         1 MOL      0.742325
     66 N7         -3.9700   -3.1340   -2.4590 n         1 MOL     -0.818241
     67 O11        -3.5360   -1.3020   -1.3980 o         1 MOL     -0.600606
     68 H28        -5.4210    0.9480   -1.3950 hn        1 MOL      0.321625
     69 H29        -7.5660   -0.8510   -1.5490 h1        1 MOL      0.116748
     70 H30        -5.6050   -0.5740   -3.1530 hc        1 MOL      0.101264
     71 H31        -6.2660   -2.2220   -2.8520 hc        1 MOL      0.101264
     72 H32        -4.6330   -3.8040   -2.8130 hn        1 MOL      0.370537
     73 H33        -3.0360   -3.5040   -2.3280 hn        1 MOL      0.370537
     74 N8         -5.7870   -1.4890    1.0900 n         1 MOL     -0.141835
     75 C23        -5.5020   -2.3890    2.1840 c3        1 MOL     -0.294312
     76 C24        -4.1070   -3.0400    2.2610 c         1 MOL      0.631551
     77 O12        -3.8980   -3.7750    3.2260 o         1 MOL     -0.567201
     78 H34        -5.2380   -0.6520    1.0440 hn        1 MOL      0.265264
     79 H35        -6.2390   -3.1840    2.3050 h1        1 MOL      0.154115
     80 H36        -5.6110   -1.8380    3.1170 h1        1 MOL      0.154115
     81 N9         -3.1980   -2.9050    1.2570 n         1 MOL     -0.517211
     82 C25        -1.9830   -3.6900    1.1700 c3        1 MOL      0.362721
     83 C26        -0.7480   -2.8180    0.7670 c         1 MOL      0.428558
     84 O13        -0.8310   -1.7810    0.0910 o         1 MOL     -0.611125
     85 C27        -2.2060   -4.8810    0.2690 c3        1 MOL      0.076549
     86 C28        -3.2900   -5.8370    0.6460 ca        1 MOL     -0.066184
     87 C29        -4.6080   -5.7420    0.1510 ca        1 MOL     -0.058558
     88 C30        -2.9700   -6.7820    1.6130 ca        1 MOL     -0.058558
     89 C31        -5.5910   -6.6470    0.6590 ca        1 MOL     -0.351746
     90 C32        -3.9550   -7.7550    1.9330 ca        1 MOL     -0.351746
     91 C33        -5.2510   -7.6450    1.5000 ca        1 MOL      0.441530
     92 O14        -6.2760   -8.4450    1.9290 oh        1 MOL     -0.471449
     93 H37        -3.4430   -2.3510    0.4580 hn        1 MOL      0.243057
     94 H38        -1.7580   -4.0830    2.1610 h1        1 MOL     -0.014002
     95 H39        -1.3150   -5.5040    0.1760 hc        1 MOL     -0.056385
     96 H40        -2.4990   -4.4350   -0.6830 hc        1 MOL     -0.056385
     97 H41        -4.9170   -5.0050   -0.5770 ha        1 MOL      0.111647
     98 H42        -1.9840   -6.8440    2.0350 ha        1 MOL      0.111647
     99 H43        -6.6260   -6.5150    0.3950 ha        1 MOL      0.156816
    100 H44        -3.7170   -8.5550    2.6290 ha        1 MOL      0.156816
    101 H45        -5.8940   -9.2450    2.2990 ho        1 MOL      0.327353
    102 N10         0.3520   -3.2100    1.3540 n         1 MOL     -0.492029
    103 C34         1.7150   -2.5740    1.3320 c3        1 MOL      0.220477
    104 C35         2.7440   -3.5370    0.7980 c         1 MOL      0.393393
    105 O15         2.7200   -4.7490    1.0330 o         1 MOL     -0.570563
    106 C36         1.9860   -1.9650    2.7510 c3        1 MOL     -0.004359
    107 C37         1.4140   -0.5040    2.7670 c3        1 MOL      0.080650
    108 C38         3.5060   -1.9420    3.1290 c3        1 MOL     -0.136072
    109 C39         1.5840    0.1340    4.1080 c3        1 MOL     -0.170211
    110 H46         0.3270   -4.0540    1.9140 hn        1 MOL      0.294555
    111 H47         1.7520   -1.7350    0.6330 h1        1 MOL      0.040646
    112 H48         1.4390   -2.6220    3.4150 hc        1 MOL      0.027322
    113 H49         0.3880   -0.6040    2.4250 hc        1 MOL      0.027926
    114 H50         1.9730    0.1570    2.1090 hc        1 MOL      0.027926
    115 H51         4.0160   -2.9000    3.1350 hc        1 MOL      0.025235
    116 H52         4.0150   -1.3070    2.4050 hc        1 MOL      0.025235
    117 H53         3.5520   -1.6920    4.1960 hc        1 MOL      0.025235
    118 H54         0.7580    0.8420    4.1840 hc        1 MOL      0.035771
    119 H55         1.5340   -0.5950    4.9170 hc        1 MOL      0.035771
    120 H56         2.5540    0.6190    4.1800 hc        1 MOL      0.035771
    121 N11         3.7290   -3.0730    0.0570 n         1 MOL     -0.068786
    122 C40         4.8680   -3.7700   -0.5280 c3        1 MOL      0.138508
    123 C41         6.1570   -3.0780   -0.1020 c         1 MOL      0.204985
    124 O16         6.1810   -2.0680    0.5810 o         1 MOL     -0.254394
    125 C42         4.6900   -3.5770   -2.0600 c3        1 MOL     -0.465507
    126 O17         4.7520   -2.1030   -2.4300 oh        1 MOL     -0.358819
    127 H57         3.8170   -2.0810   -0.0910 hn        1 MOL      0.085567
    128 H58         4.8930   -4.8540   -0.3880 h1        1 MOL      0.087112
    129 H59         3.6700   -3.8730   -2.2760 h1        1 MOL      0.193031
    130 H60         5.4090   -4.1690   -2.6170 h1        1 MOL      0.193031
    131 H61         4.2070   -1.9640   -3.2140 ho        1 MOL      0.372838
    132 N12         7.3160   -3.7680   -0.3010 n         1 MOL     -0.388857
    133 C43         8.6380   -3.1850   -0.0590 c3        1 MOL      0.171067
    134 C44         8.8400   -1.7230   -0.6570 c         1 MOL      0.486850
    135 O18         9.2610   -0.8070    0.0550 o         1 MOL     -0.503138
    136 C45         9.6710   -4.2540   -0.4690 c3        1 MOL     -0.295882
    137 H62         7.0320   -4.6740   -0.6680 hn        1 MOL      0.289641
    138 H63         8.8190   -2.9830    0.9950 h1        1 MOL      0.061614
    139 H64         9.4480   -4.4970   -1.5110 hc        1 MOL      0.088619
    140 H65        10.6620   -3.8450   -0.3110 hc        1 MOL      0.088619
    141 H66         9.5460   -5.1620    0.1190 hc        1 MOL      0.088619
    142 N13         8.2750   -1.4760   -1.8490 n         1 MOL     -0.484866
    143 C46         8.1970   -0.1560   -2.4380 c3        1 MOL      0.259718
    144 C47         7.3190    0.8140   -1.6030 c         1 MOL      0.199956
    145 O19         7.6870    1.9840   -1.3670 o         1 MOL     -0.468833
    146 C48         7.7120   -0.2790   -3.8490 c3        1 MOL     -0.205340
    147 H67         7.8190   -2.2520   -2.3260 hn        1 MOL      0.287726
    148 H68         9.2000    0.2450   -2.5490 h1        1 MOL      0.067359
    149 H69         6.7840   -0.8490   -3.8560 hc        1 MOL      0.050500
    150 H70         7.7380    0.6630   -4.4060 hc        1 MOL      0.050500
    151 H71         8.4990   -0.8710   -4.3130 hc        1 MOL      0.050500
    152 N14         6.0730    0.3940   -1.2680 n         1 MOL      0.005716
    153 C49         5.1700    1.2280   -0.4990 c3        1 MOL     -0.013403
    154 C50         5.8430    1.5730    0.8770 c         1 MOL      0.402399
    155 O20         5.7530    2.7710    1.2640 o         1 MOL     -0.549528
    156 C51         3.8500    0.5390   -0.2670 c3        1 MOL     -0.054367
    157 C52         3.1370    0.7480   -1.5990 c3        1 MOL     -0.118321
    158 C53         1.7640    0.2270   -1.4760 c         1 MOL      0.713839
    159 O21         1.3980   -0.7040   -2.2580 o         1 MOL     -0.763490
    160 O22         0.8780    0.8780   -0.8630 o         1 MOL     -0.763490
    161 H72         5.8180   -0.5580   -1.4850 hn        1 MOL      0.028679
    162 H73         5.1050    2.2050   -0.9760 h1        1 MOL      0.090267
    163 H74         3.3490    1.0190    0.5780 hc        1 MOL      0.050363
    164 H75         4.1280   -0.4870   -0.0470 hc        1 MOL      0.050363
    165 H76         3.7000    0.3730   -2.4510 hc        1 MOL      0.033433
    166 H77         3.0560    1.8190   -1.8000 hc        1 MOL      0.033433
    167 N15         6.6070    0.6220    1.4890 n         1 MOL      0.016925
    168 C54         7.3600    0.9350    2.6880 c3        1 MOL     -0.506113
    169 H78         8.4250    0.8290    2.4860 h1        1 MOL      0.157623
    170 H79         7.1490    1.9610    2.9940 h1        1 MOL      0.157623
    171 H80         7.0730    0.2520    3.4870 h1        1 MOL      0.157623
    172 H81         6.6160   -0.3490    1.2120 hn        1 MOL      0.116018
    173 Ca1        -1.3370   -0.1110   -1.8960 Ca        1 MOL      1.756759
    174 O23        -0.7100   -2.8580   -2.5900 oh        1 MOL     -0.787146
    175 H82         0.2260   -2.8830   -2.3890 ho        1 MOL      0.388188
    176 H83        -0.8970   -3.7240   -2.9630 ho        1 MOL      0.388188
    177 O24        -1.4270   -0.7950   -4.6030 oh        1 MOL     -0.787146
    178 H84        -2.2140   -1.1540   -5.0060 ho        1 MOL      0.388188
    179 H85        -0.7000   -1.2520   -5.0430 ho        1 MOL      0.388188
@<TRIPOS>BOND
     1    1    2 1   
     2    1    4 1   
     3    1    5 1   
     4    1    6 1   
     5    2    3 2   
     6    2    7 1   
     7    7    8 1   
     8    7   15 1   
     9    8    9 1   
    10    8   11 1   
    11    8   16 1   
    12    9   10 2   
    13    9   19 1   
    14   11   12 1   
    15   11   17 1   
    16   11   18 1   
    17   12   13 1   
    18   12   14 1   
    19   19   20 1   
    20   19   28 1   
    21   20   21 1   
    22   20   23 1   
    23   20   29 1   
    24   21   22 2   
    25   21   41 1   
    26   23   24 1   
    27   23   30 1   
    28   23   31 1   
    29   24   25 1   
    30   24   32 1   
    31   24   33 1   
    32   25   26 1   
    33   25   34 1   
    34   25   35 1   
    35   26   27 1   
    36   26   36 1   
    37   26   37 1   
    38   27   38 1   
    39   27   39 1   
    40   27   40 1   
    41   41   42 1   
    42   41   49 1   
    43   42   43 1   
    44   42   45 1   
    45   42   50 1   
    46   43   44 2   
    47   43   53 1   
    48   45   46 1   
    49   45   51 1   
    50   45   52 1   
    51   46   47 1   
    52   46   48 1   
    53   53   54 1   
    54   53   57 1   
    55   54   55 1   
    56   54   58 1   
    57   54   59 1   
    58   55   56 2   
    59   55   60 1   
    60   60   61 1   
    61   60   68 1   
    62   61   62 1   
    63   61   64 1   
    64   61   69 1   
    65   62   63 2   
    66   62   74 1   
    67   64   65 1   
    68   64   70 1   
    69   64   71 1   
    70   65   66 1   
    71   65   67 2   
    72   66   72 1   
    73   66   73 1   
    74   74   75 1   
    75   74   78 1   
    76   75   76 1   
    77   75   79 1   
    78   75   80 1   
    79   76   77 2   
    80   76   81 1   
    81   81   82 1   
    82   81   93 1   
    83   82   83 1   
    84   82   85 1   
    85   82   94 1   
    86   83   84 2   
    87   83  102 1   
    88   85   86 1   
    89   85   95 1   
    90   85   96 1   
    91   86   87 ar  
    92   86   88 ar  
    93   87   89 ar  
    94   87   97 1   
    95   88   90 ar  
    96   88   98 1   
    97   89   91 ar  
    98   89   99 1   
    99   90   91 ar  
   100   90  100 1   
   101   91   92 1   
   102   92  101 1   
   103  102  103 1   
   104  102  110 1   
   105  103  104 1   
   106  103  106 1   
   107  103  111 1   
   108  104  105 2   
   109  104  121 1   
   110  106  107 1   
   111  106  108 1   
   112  106  112 1   
   113  107  109 1   
   114  107  113 1   
   115  107  114 1   
   116  108  115 1   
   117  108  116 1   
   118  108  117 1   
   119  109  118 1   
   120  109  119 1   
   121  109  120 1   
   122  121  122 1   
   123  121  127 1   
   124  122  123 1   
   125  122  125 1   
   126  122  128 1   
   127  123  124 2   
   128  123  132 1   
   129  125  126 1   
   130  125  129 1   
   131  125  130 1   
   132  126  131 1   
   133  132  133 1   
   134  132  137 1   
   135  133  134 1   
   136  133  136 1   
   137  133  138 1   
   138  134  135 2   
   139  134  142 1   
   140  136  139 1   
   141  136  140 1   
   142  136  141 1   
   143  142  143 1   
   144  142  147 1   
   145  143  144 1   
   146  143  146 1   
   147  143  148 1   
   148  144  145 2   
   149  144  152 1   
   150  146  149 1   
   151  146  150 1   
   152  146  151 1   
   153  152  153 1   
   154  152  161 1   
   155  153  154 1   
   156  153  156 1   
   157  153  162 1   
   158  154  155 2   
   159  154  167 1   
   160  156  157 1   
   161  156  163 1   
   162  156  164 1   
   163  157  158 1   
   164  157  165 1   
   165  157  166 1   
   166  158  159 1   
   167  158  160 1   
   168  167  168 1   
   169  167  172 1   
   170  168  169 1   
   171  168  170 1   
   172  168  171 1   
   173  174  175 1   
   174  174  176 1   
   175  177  178 1   
   176  177  179 1   
@<TRIPOS>SUBSTRUCTURE
     1 MOL         1 TEMP              0 ****  ****    0 ROOT
